<?xml version='1.0' encoding='UTF-8'?>
<net xmlns:xsi="http://www.w3.org/2001/XMLSchema-instance" version="1.20" junctionCornerDetail="5" lefthand="true" limitTurnSpeed="5.50" avoidOverlap="0" xsi:noNamespaceSchemaLocation="http://sumo.dlr.de/xsd/net_file.xsd">
    <location netOffset="-630978.13,4822178.30" convBoundary="0.00,0.00,2482.54,2313.76" origBoundary="172.621184,-43.540712,172.651496,-43.520115" projParameter="+proj=utm +zone=59 +ellps=WGS84 +datum=WGS84 +units=m +no_defs" />
    <type id="highway.busway" priority="1" numLanes="1" speed="27.78" allow="bus" oneway="1" />
    <type id="highway.cycleway" priority="1" numLanes="1" speed="5.56" allow="bicycle" oneway="0" width="2.00" />
    <type id="highway.living_street" priority="2" numLanes="1" speed="2.78" disallow="tram rail_urban rail rail_electric rail_fast ship container cable_car subway aircraft wheelchair scooter drone" oneway="0" />
    <type id="highway.pedestrian" priority="1" numLanes="1" speed="2.78" allow="pedestrian" oneway="1" width="2.00" />
    <type id="highway.pedestrian|railway.tram" priority="17" numLanes="1" speed="13.89" allow="pedestrian tram" oneway="1" width="3.20" />
    <type id="highway.primary" priority="12" numLanes="2" speed="27.78" disallow="tram rail_urban rail rail_electric rail_fast ship container cable_car subway aircraft wheelchair scooter drone" oneway="0" />
    <type id="highway.primary_link" priority="7" numLanes="1" speed="22.22" disallow="tram rail_urban rail rail_electric rail_fast ship container cable_car subway aircraft wheelchair scooter drone" oneway="0" />
    <type id="highway.residential" priority="3" numLanes="1" speed="13.89" disallow="tram rail_urban rail rail_electric rail_fast ship container cable_car subway aircraft wheelchair scooter drone" oneway="0" />
    <type id="highway.secondary" priority="11" numLanes="1" speed="27.78" disallow="tram rail_urban rail rail_electric rail_fast ship container cable_car subway aircraft wheelchair scooter drone" oneway="0" />
    <type id="highway.secondary_link" priority="6" numLanes="1" speed="22.22" disallow="tram rail_urban rail rail_electric rail_fast ship container cable_car subway aircraft wheelchair scooter drone" oneway="0" />
    <type id="highway.service" priority="1" numLanes="1" speed="5.56" allow="pedestrian delivery bicycle" oneway="0" />
    <type id="highway.tertiary" priority="10" numLanes="1" speed="22.22" disallow="tram rail_urban rail rail_electric rail_fast ship container cable_car subway aircraft wheelchair scooter drone" oneway="0" />
    <type id="highway.unclassified" priority="4" numLanes="1" speed="13.89" disallow="tram rail_urban rail rail_electric rail_fast ship container cable_car subway aircraft wheelchair scooter drone" oneway="0" />
    <edge id=":10725289234_0" function="internal">
        <lane id=":10725289234_0_0" index="0" disallow="tram rail_urban rail rail_electric rail_fast ship container cable_car subway aircraft wheelchair scooter drone" speed="13.89" length="8.32" shape="2373.79,771.83 2373.33,774.30 2372.25,775.86 2371.18,777.41 2370.72,779.88" />
        <lane id=":10725289234_0_1" index="1" disallow="tram rail_urban rail rail_electric rail_fast ship container cable_car subway aircraft wheelchair scooter drone" speed="13.89" length="8.32" shape="2373.79,771.83 2373.92,779.83" />
        <lane id=":10725289234_0_2" index="2" disallow="tram rail_urban rail rail_electric rail_fast ship container cable_car subway aircraft wheelchair scooter drone" speed="13.89" length="8.32" shape="2376.99,771.78 2377.12,779.78" />
        <lane id=":10725289234_0_3" index="3" disallow="tram rail_urban rail rail_electric rail_fast ship container cable_car subway aircraft wheelchair scooter drone" speed="13.89" length="8.32" shape="2380.18,771.73 2380.31,779.73" />
        <lane id=":10725289234_0_4" index="4" disallow="tram rail_urban rail rail_electric rail_fast ship container cable_car subway aircraft wheelchair scooter drone" speed="13.89" length="8.32" shape="2380.18,771.73 2380.72,774.18 2381.85,775.70 2382.97,777.22 2383.51,779.68" />
    </edge>
    <edge id=":10725289235_0" function="internal">
        <lane id=":10725289235_0_0" index="0" disallow="tram rail_urban rail rail_electric rail_fast ship container cable_car subway aircraft wheelchair scooter drone" speed="13.89" length="8.25" shape="2396.43,853.60 2396.88,851.31 2397.96,849.88 2399.03,848.45 2399.48,846.16" />
        <lane id=":10725289235_0_1" index="1" disallow="tram rail_urban rail rail_electric rail_fast ship container cable_car subway aircraft wheelchair scooter drone" speed="13.89" length="8.25" shape="2393.23,853.66 2393.68,851.37 2394.76,849.94 2395.83,848.51 2396.28,846.22" />
        <lane id=":10725289235_0_2" index="2" disallow="tram rail_urban rail rail_electric rail_fast ship container cable_car subway aircraft wheelchair scooter drone" speed="13.89" length="8.25" shape="2390.03,853.72 2390.48,851.43 2391.56,850.00 2392.63,848.57 2393.08,846.28" />
    </edge>
    <edge id=":10725289236_0" function="internal">
        <lane id=":10725289236_0_0" index="0" disallow="tram rail_urban rail rail_electric rail_fast ship container cable_car subway aircraft wheelchair scooter drone" speed="13.89" length="8.64" shape="2400.48,898.83 2400.93,896.36 2402.00,894.80 2403.07,893.24 2403.52,890.77" />
        <lane id=":10725289236_0_1" index="1" disallow="tram rail_urban rail rail_electric rail_fast ship container cable_car subway aircraft wheelchair scooter drone" speed="13.89" length="8.64" shape="2400.48,898.83 2400.32,890.83" />
        <lane id=":10725289236_0_2" index="2" disallow="tram rail_urban rail rail_electric rail_fast ship container cable_car subway aircraft wheelchair scooter drone" speed="13.89" length="8.64" shape="2400.48,898.83 2399.93,896.38 2398.80,894.86 2397.67,893.34 2397.12,890.89" />
        <lane id=":10725289236_0_3" index="3" disallow="tram rail_urban rail rail_electric rail_fast ship container cable_car subway aircraft wheelchair scooter drone" speed="13.89" length="8.64" shape="2397.28,898.89 2396.73,896.44 2395.60,894.92 2394.47,893.40 2393.93,890.95" />
        <lane id=":10725289236_0_4" index="4" disallow="tram rail_urban rail rail_electric rail_fast ship container cable_car subway aircraft wheelchair scooter drone" speed="13.89" length="8.64" shape="2394.08,898.95 2393.53,896.50 2392.40,894.98 2391.27,893.46 2390.73,891.01" />
    </edge>
    <edge id=":10736468346_0" function="internal">
        <lane id=":10736468346_0_0" index="0" disallow="bus tram rail_urban rail rail_electric rail_fast ship container cable_car subway aircraft wheelchair scooter drone" speed="8.33" length="8.40" shape="807.81,984.79 805.34,984.33 803.79,983.25 802.23,982.18 799.76,981.72" />
        <lane id=":10736468346_0_1" index="1" disallow="bus tram rail_urban rail rail_electric rail_fast ship container cable_car subway aircraft wheelchair scooter drone" speed="8.33" length="8.40" shape="807.81,984.79 799.81,984.92" />
    </edge>
    <edge id=":10736468346_2" function="internal">
        <lane id=":10736468346_2_0" index="0" disallow="bus tram rail_urban rail rail_electric rail_fast ship container cable_car subway aircraft wheelchair scooter drone" speed="8.33" length="8.00" shape="799.87,988.11 807.86,987.99" />
    </edge>
    <edge id=":1074583914_0" function="internal">
        <lane id=":1074583914_0_0" index="0" disallow="bus tram rail_urban rail rail_electric rail_fast ship container cable_car subway aircraft wheelchair scooter drone" speed="8.33" length="0.17" shape="1285.37,1042.23 1285.22,1042.15" />
    </edge>
    <edge id=":1074583914_1" function="internal">
        <lane id=":1074583914_1_0" index="0" disallow="bus tram rail_urban rail rail_electric rail_fast ship container cable_car subway aircraft wheelchair scooter drone" speed="8.33" length="0.29" shape="1283.62,1044.92 1283.87,1045.06" />
    </edge>
    <edge id=":1079343074_0" function="internal">
        <lane id=":1079343074_0_0" index="0" disallow="bus tram rail_urban rail rail_electric rail_fast ship container cable_car subway aircraft wheelchair scooter drone" speed="8.33" length="0.22" shape="1393.07,1094.57 1392.84,1094.57" />
    </edge>
    <edge id=":1079343074_1" function="internal">
        <lane id=":1079343074_1_0" index="0" disallow="bus tram rail_urban rail rail_electric rail_fast ship container cable_car subway aircraft wheelchair scooter drone" speed="8.33" length="0.31" shape="1392.83,1097.77 1393.14,1097.77" />
    </edge>
    <edge id=":1079398266_0" function="internal">
        <lane id=":1079398266_0_0" index="0" disallow="tram rail_urban rail rail_electric rail_fast ship container cable_car subway aircraft wheelchair scooter drone" speed="2.78" length="4.85" shape="1441.03,1214.93 1436.18,1214.89" />
    </edge>
    <edge id=":1079398266_1" function="internal">
        <lane id=":1079398266_1_0" index="0" disallow="tram rail_urban rail rail_electric rail_fast ship container cable_car subway aircraft wheelchair scooter drone" speed="2.78" length="4.95" shape="1436.11,1218.09 1441.05,1218.13" />
    </edge>
    <edge id=":10835711901_0" function="internal">
        <lane id=":10835711901_0_0" index="0" disallow="tram rail_urban rail rail_electric rail_fast ship container cable_car subway aircraft wheelchair scooter drone" speed="13.89" length="8.90" shape="2113.73,1839.68 2112.47,1837.38 2111.80,1835.70 2111.34,1833.93 2110.68,1831.37" />
    </edge>
    <edge id=":10835711901_1" function="internal">
        <lane id=":10835711901_1_0" index="0" speed="6.17" length="0.97" width="2.00" shape="2113.21,1839.99 2112.63,1839.21" disallow="tram rail_urban rail rail_electric rail_fast ship container cable_car subway aircraft wheelchair scooter drone" />
    </edge>
    <edge id=":10835711901_7" function="internal">
        <lane id=":10835711901_7_0" index="0" speed="6.17" length="11.35" width="2.00" shape="2112.63,1839.21 2110.75,1836.68 2108.57,1835.54 2106.67,1836.57 2105.05,1839.76" disallow="tram rail_urban rail rail_electric rail_fast ship container cable_car subway aircraft wheelchair scooter drone" />
    </edge>
    <edge id=":10835711901_2" function="internal">
        <lane id=":10835711901_2_0" index="0" speed="4.00" length="4.84" width="2.00" shape="2106.83,1840.73 2107.46,1839.50 2108.21,1839.13 2109.07,1839.60 2110.05,1840.92" disallow="tram rail_urban rail rail_electric rail_fast ship container cable_car subway aircraft wheelchair scooter drone" />
    </edge>
    <edge id=":10835711901_3" function="internal">
        <lane id=":10835711901_3_0" index="0" speed="9.72" length="10.95" width="2.00" shape="2106.83,1840.73 2108.40,1837.93 2110.16,1836.01 2111.36,1834.07 2111.26,1831.21" disallow="tram rail_urban rail rail_electric rail_fast ship container cable_car subway aircraft wheelchair scooter drone" />
    </edge>
    <edge id=":10835711901_4" function="internal">
        <lane id=":10835711901_4_0" index="0" speed="2.90" length="2.96" width="2.00" shape="2106.83,1840.73 2106.75,1839.82 2106.43,1839.36 2105.86,1839.34 2105.05,1839.76" disallow="tram rail_urban rail rail_electric rail_fast ship container cable_car subway aircraft wheelchair scooter drone" />
    </edge>
    <edge id=":10835711901_5" function="internal">
        <lane id=":10835711901_5_0" index="0" speed="9.72" length="7.90" width="2.00" shape="2107.02,1832.38 2107.31,1834.58 2106.88,1836.10 2106.03,1837.61 2105.05,1839.76" disallow="tram rail_urban rail rail_electric rail_fast ship container cable_car subway aircraft wheelchair scooter drone" />
    </edge>
    <edge id=":10835711901_6" function="internal">
        <lane id=":10835711901_6_0" index="0" disallow="tram rail_urban rail rail_electric rail_fast ship container cable_car subway aircraft wheelchair scooter drone" speed="13.89" length="8.96" shape="2107.60,1832.22 2108.24,1834.81 2108.67,1836.59 2109.31,1838.29 2110.56,1840.62" />
    </edge>
    <edge id=":10931027720_0" function="internal">
        <lane id=":10931027720_0_0" index="0" speed="5.56" length="0.30" width="2.00" shape="535.30,1241.41 535.30,1241.10" disallow="tram rail_urban rail rail_electric rail_fast ship container cable_car subway aircraft wheelchair scooter drone" />
    </edge>
    <edge id=":10931027720_1" function="internal">
        <lane id=":10931027720_1_0" index="0" speed="5.56" length="0.30" width="2.00" shape="533.30,1241.14 533.30,1241.43" disallow="tram rail_urban rail rail_electric rail_fast ship container cable_car subway aircraft wheelchair scooter drone" />
    </edge>
    <edge id=":10931027721_0" function="internal">
        <lane id=":10931027721_0_0" index="0" speed="5.56" length="0.30" width="2.00" shape="535.16,1232.58 535.16,1232.28" disallow="tram rail_urban rail rail_electric rail_fast ship container cable_car subway aircraft wheelchair scooter drone" />
    </edge>
    <edge id=":10931027721_1" function="internal">
        <lane id=":10931027721_1_0" index="0" speed="5.56" length="0.29" width="2.00" shape="533.16,1232.33 533.16,1232.61" disallow="tram rail_urban rail rail_electric rail_fast ship container cable_car subway aircraft wheelchair scooter drone" />
    </edge>
    <edge id=":10931027722_0" function="internal">
        <lane id=":10931027722_0_0" index="0" speed="5.56" length="0.30" width="2.00" shape="534.94,1223.40 534.94,1223.10" disallow="tram rail_urban rail rail_electric rail_fast ship container cable_car subway aircraft wheelchair scooter drone" />
    </edge>
    <edge id=":10931027722_1" function="internal">
        <lane id=":10931027722_1_0" index="0" speed="5.56" length="0.30" width="2.00" shape="532.94,1223.14 532.94,1223.44" disallow="tram rail_urban rail rail_electric rail_fast ship container cable_car subway aircraft wheelchair scooter drone" />
    </edge>
    <edge id=":10932403533_0" function="internal">
        <lane id=":10932403533_0_0" index="0" allow="pedestrian bicycle" speed="5.56" length="9.46" width="2.00" shape="1766.53,1504.02 1757.08,1504.05" />
    </edge>
    <edge id=":10932403533_1" function="internal">
        <lane id=":10932403533_1_0" index="0" allow="pedestrian bicycle" speed="5.34" length="6.20" width="2.00" shape="1766.53,1504.02 1765.16,1504.31 1764.19,1505.16 1763.63,1506.57 1763.47,1508.56" />
    </edge>
    <edge id=":10932403533_2" function="internal">
        <lane id=":10932403533_2_0" index="0" allow="pedestrian bicycle" speed="2.89" length="2.92" width="2.00" shape="1766.53,1504.02 1765.78,1504.52 1765.54,1505.02 1765.79,1505.52 1766.54,1506.02" />
    </edge>
    <edge id=":10932403533_3" function="internal">
        <lane id=":10932403533_3_0" index="0" allow="pedestrian bicycle" speed="4.59" length="4.83" width="2.00" shape="1757.08,1506.05 1758.46,1506.02 1759.44,1506.44 1760.05,1507.30 1760.27,1508.62" />
    </edge>
    <edge id=":10932403533_4" function="internal">
        <lane id=":10932403533_4_0" index="0" allow="pedestrian bicycle" speed="5.56" length="9.48" width="2.00" shape="1757.08,1506.05 1759.87,1505.73 1761.79,1505.76 1763.72,1505.92 1766.54,1506.02" />
    </edge>
    <edge id=":10932403533_5" function="internal">
        <lane id=":10932403533_5_0" index="0" allow="pedestrian bicycle" speed="2.94" length="2.92" width="2.00" shape="1757.08,1506.05 1757.83,1505.55 1758.08,1505.05 1757.83,1504.55 1757.08,1504.05" />
    </edge>
    <edge id=":10932403533_6" function="internal">
        <lane id=":10932403533_6_0" index="0" allow="pedestrian bicycle" speed="4.83" length="4.53" width="2.00" shape="1760.15,1501.52 1759.97,1502.62 1759.40,1503.41 1758.43,1503.89 1757.08,1504.05" />
    </edge>
    <edge id=":10932403533_7" function="internal">
        <lane id=":10932403533_7_0" index="0" disallow="tram rail_urban rail rail_electric rail_fast ship container cable_car subway aircraft wheelchair scooter drone" speed="13.89" length="7.09" shape="1760.15,1501.52 1760.27,1508.62" />
        <lane id=":10932403533_7_1" index="1" disallow="tram rail_urban rail rail_electric rail_fast ship container cable_car subway aircraft wheelchair scooter drone" speed="13.89" length="7.09" shape="1763.35,1501.48 1763.47,1508.56" />
    </edge>
    <edge id=":10932403533_9" function="internal">
        <lane id=":10932403533_9_0" index="0" allow="pedestrian bicycle" speed="5.56" length="6.25" width="2.00" shape="1763.35,1501.48 1763.57,1503.47 1764.18,1504.89 1765.17,1505.74 1766.54,1506.02" />
    </edge>
    <edge id=":10993270299_0" function="internal">
        <lane id=":10993270299_0_0" index="0" disallow="tram rail_urban rail rail_electric rail_fast ship container cable_car subway aircraft wheelchair scooter drone" speed="13.89" length="0.30" shape="1742.47,465.96 1742.47,466.26" />
        <lane id=":10993270299_0_1" index="1" disallow="tram rail_urban rail rail_electric rail_fast ship container cable_car subway aircraft wheelchair scooter drone" speed="13.89" length="0.30" shape="1745.67,465.88 1745.67,466.18" />
    </edge>
    <edge id=":1106889218_0" function="internal">
        <lane id=":1106889218_0_0" index="0" disallow="bus tram rail_urban rail rail_electric rail_fast ship container cable_car subway aircraft wheelchair scooter drone" speed="5.55" length="9.05" shape="1497.51,774.29 1499.98,774.61 1501.75,775.63 1502.84,777.36 1503.24,779.80" />
        <lane id=":1106889218_0_1" index="1" disallow="all" speed="5.55" length="11.74" shape="1497.51,774.29 1501.38,774.59 1504.15,775.60 1505.84,777.32 1506.43,779.74" />
    </edge>
    <edge id=":1106889218_2" function="internal">
        <lane id=":1106889218_2_0" index="0" disallow="tram rail_urban rail rail_electric rail_fast ship container cable_car subway aircraft wheelchair scooter drone" speed="8.33" length="14.40" shape="1502.97,765.41 1503.24,779.80" />
        <lane id=":1106889218_2_1" index="1" allow="bus" speed="8.33" length="14.40" shape="1506.17,765.35 1506.43,779.74" />
    </edge>
    <edge id=":11178603766_0" function="internal">
        <lane id=":11178603766_0_0" index="0" disallow="bus tram rail_urban rail rail_electric rail_fast ship container cable_car subway aircraft wheelchair scooter drone" speed="8.33" length="0.31" shape="1534.56,968.55 1534.25,968.55" />
        <lane id=":11178603766_0_1" index="1" disallow="bus tram rail_urban rail rail_electric rail_fast ship container cable_car subway aircraft wheelchair scooter drone" speed="8.33" length="0.31" shape="1534.60,971.75 1534.30,971.75" />
    </edge>
    <edge id=":11178603766_2" function="internal">
        <lane id=":11178603766_2_0" index="0" disallow="bus tram rail_urban rail rail_electric rail_fast ship container cable_car subway aircraft wheelchair scooter drone" speed="8.33" length="0.29" shape="1534.35,974.95 1534.63,974.95" />
    </edge>
    <edge id=":11193500073_0" function="internal">
        <lane id=":11193500073_0_0" index="0" disallow="tram rail_urban rail rail_electric rail_fast ship container cable_car subway aircraft wheelchair scooter drone" speed="13.89" length="14.40" shape="2355.35,1562.90 2340.96,1563.18" />
    </edge>
    <edge id=":11193500073_1" function="internal">
        <lane id=":11193500073_1_0" index="0" disallow="tram rail_urban rail rail_electric rail_fast ship container cable_car subway aircraft wheelchair scooter drone" speed="8.03" length="4.05" shape="2355.35,1562.90 2351.53,1563.53 2351.38,1563.62" />
    </edge>
    <edge id=":11193500073_6" function="internal">
        <lane id=":11193500073_6_0" index="0" disallow="tram rail_urban rail rail_electric rail_fast ship container cable_car subway aircraft wheelchair scooter drone" speed="8.03" length="10.15" shape="2351.38,1563.62 2348.81,1565.23 2347.20,1568.02 2346.69,1571.88" />
    </edge>
    <edge id=":11193500073_2" function="internal">
        <lane id=":11193500073_2_0" index="0" disallow="tram rail_urban rail rail_electric rail_fast ship container cable_car subway aircraft wheelchair scooter drone" speed="6.54" length="9.07" shape="2349.89,1571.85 2350.21,1569.37 2351.24,1567.59 2352.97,1566.50 2355.41,1566.10" />
    </edge>
    <edge id=":11193500073_3" function="internal">
        <lane id=":11193500073_3_0" index="0" disallow="tram rail_urban rail rail_electric rail_fast ship container cable_car subway aircraft wheelchair scooter drone" speed="7.99" length="14.22" shape="2349.89,1571.85 2349.30,1567.99 2347.61,1565.26 2344.83,1563.66 2340.96,1563.18" />
    </edge>
    <edge id=":11193500073_4" function="internal">
        <lane id=":11193500073_4_0" index="0" disallow="tram rail_urban rail rail_electric rail_fast ship container cable_car subway aircraft wheelchair scooter drone" speed="6.49" length="9.03" shape="2341.02,1566.38 2343.48,1566.68 2345.24,1567.70 2346.31,1569.43 2346.69,1571.88" />
    </edge>
    <edge id=":11193500073_5" function="internal">
        <lane id=":11193500073_5_0" index="0" disallow="tram rail_urban rail rail_electric rail_fast ship container cable_car subway aircraft wheelchair scooter drone" speed="13.89" length="14.40" shape="2341.02,1566.38 2355.41,1566.10" />
    </edge>
    <edge id=":11397419425_0" function="internal">
        <lane id=":11397419425_0_0" index="0" allow="tram" speed="13.89" length="0.30" width="3.20" shape="972.59,1103.34 972.29,1103.34" />
    </edge>
    <edge id=":11474791880_0" function="internal">
        <lane id=":11474791880_0_0" index="0" disallow="bus tram rail_urban rail rail_electric rail_fast ship container cable_car subway aircraft wheelchair scooter drone" speed="8.33" length="0.24" shape="1638.10,1212.69 1638.02,1212.70 1637.97,1212.70 1637.92,1212.69 1637.85,1212.69" />
    </edge>
    <edge id=":11474791880_1" function="internal">
        <lane id=":11474791880_1_0" index="0" disallow="bus tram rail_urban rail rail_electric rail_fast ship container cable_car subway aircraft wheelchair scooter drone" speed="8.33" length="0.73" shape="1637.53,1215.92 1638.26,1215.89" />
    </edge>
    <edge id=":11590723272_0" function="internal">
        <lane id=":11590723272_0_0" index="0" disallow="tram rail_urban rail rail_electric rail_fast ship container cable_car subway aircraft wheelchair scooter drone" speed="13.89" length="5.49" shape="1317.96,1580.57 1312.46,1580.64" />
        <lane id=":11590723272_0_1" index="1" disallow="tram rail_urban rail rail_electric rail_fast ship container cable_car subway aircraft wheelchair scooter drone" speed="13.89" length="5.49" shape="1318.01,1583.77 1312.54,1583.84" />
    </edge>
    <edge id=":11650932759_0" function="internal">
        <lane id=":11650932759_0_0" index="0" disallow="tram rail_urban rail rail_electric rail_fast ship container cable_car subway aircraft wheelchair scooter drone" speed="8.33" length="0.30" shape="1514.82,1030.89 1514.82,1030.58" />
    </edge>
    <edge id=":11650932759_1" function="internal">
        <lane id=":11650932759_1_0" index="0" disallow="tram rail_urban rail rail_electric rail_fast ship container cable_car subway aircraft wheelchair scooter drone" speed="8.33" length="0.30" shape="1511.62,1030.64 1511.62,1030.93" />
    </edge>
    <edge id=":11650932760_0" function="internal">
        <lane id=":11650932760_0_0" index="0" disallow="tram rail_urban rail rail_electric rail_fast ship container cable_car subway aircraft wheelchair scooter drone" speed="8.33" length="0.10" shape="1520.12,1155.86 1520.12,1155.86" />
        <lane id=":11650932760_0_1" index="1" disallow="tram rail_urban rail rail_electric rail_fast ship container cable_car subway aircraft wheelchair scooter drone" speed="8.33" length="0.10" shape="1516.92,1155.91 1516.92,1155.91" />
    </edge>
    <edge id=":11650932760_2" function="internal">
        <lane id=":11650932760_2_0" index="0" disallow="tram rail_urban rail rail_electric rail_fast ship container cable_car subway aircraft wheelchair scooter drone" speed="8.33" length="0.10" shape="1513.72,1155.97 1513.72,1155.97" />
    </edge>
    <edge id=":1166225090_0" function="internal">
        <lane id=":1166225090_0_0" index="0" disallow="tram rail_urban rail rail_electric rail_fast ship container cable_car subway aircraft wheelchair scooter drone" speed="13.89" length="0.30" shape="618.16,2218.63 617.86,2218.63" />
        <lane id=":1166225090_0_1" index="1" disallow="tram rail_urban rail rail_electric rail_fast ship container cable_car subway aircraft wheelchair scooter drone" speed="13.89" length="0.30" shape="618.21,2221.83 617.91,2221.83" />
        <lane id=":1166225090_0_2" index="2" disallow="tram rail_urban rail rail_electric rail_fast ship container cable_car subway aircraft wheelchair scooter drone" speed="13.89" length="0.30" shape="618.26,2225.03 617.96,2225.03" />
    </edge>
    <edge id=":1166225217_0" function="internal">
        <lane id=":1166225217_0_0" index="0" disallow="tram rail_urban rail rail_electric rail_fast ship container cable_car subway aircraft wheelchair scooter drone" speed="13.89" length="3.66" shape="609.47,2242.64 605.81,2242.71" />
        <lane id=":1166225217_0_1" index="1" disallow="tram rail_urban rail rail_electric rail_fast ship container cable_car subway aircraft wheelchair scooter drone" speed="13.89" length="3.66" shape="609.41,2239.44 605.75,2239.51" />
        <lane id=":1166225217_0_2" index="2" disallow="tram rail_urban rail rail_electric rail_fast ship container cable_car subway aircraft wheelchair scooter drone" speed="13.89" length="3.66" shape="609.35,2236.24 605.69,2236.31" />
    </edge>
    <edge id=":1166225802_0" function="internal">
        <lane id=":1166225802_0_0" index="0" disallow="bus tram rail_urban rail rail_electric rail_fast ship container cable_car subway aircraft wheelchair scooter drone" speed="8.33" length="0.98" shape="607.09,2209.90 606.85,2210.06 606.70,2210.19 606.58,2210.35 606.46,2210.61" />
    </edge>
    <edge id=":1166225802_1" function="internal">
        <lane id=":1166225802_1_0" index="0" disallow="bus tram rail_urban rail rail_electric rail_fast ship container cable_car subway aircraft wheelchair scooter drone" speed="8.33" length="0.95" shape="609.38,2211.93 608.75,2212.64" />
    </edge>
    <edge id=":1166225918_0" function="internal">
        <lane id=":1166225918_0_0" index="0" disallow="tram rail_urban rail rail_electric rail_fast ship container cable_car subway aircraft wheelchair scooter drone" speed="13.89" length="0.10" shape="578.55,2243.36 578.55,2243.36" />
        <lane id=":1166225918_0_1" index="1" disallow="tram rail_urban rail rail_electric rail_fast ship container cable_car subway aircraft wheelchair scooter drone" speed="13.89" length="0.10" shape="578.46,2240.16 578.46,2240.16" />
        <lane id=":1166225918_0_2" index="2" disallow="tram rail_urban rail rail_electric rail_fast ship container cable_car subway aircraft wheelchair scooter drone" speed="13.89" length="0.10" shape="578.37,2236.96 578.37,2236.96" />
    </edge>
    <edge id=":1166226351_0" function="internal">
        <lane id=":1166226351_0_0" index="0" disallow="tram rail_urban rail rail_electric rail_fast ship container cable_car subway aircraft wheelchair scooter drone" speed="13.89" length="3.77" shape="585.87,2219.43 589.64,2219.31" />
        <lane id=":1166226351_0_1" index="1" disallow="tram rail_urban rail rail_electric rail_fast ship container cable_car subway aircraft wheelchair scooter drone" speed="13.89" length="3.77" shape="585.98,2222.63 589.74,2222.50" />
        <lane id=":1166226351_0_2" index="2" disallow="tram rail_urban rail rail_electric rail_fast ship container cable_car subway aircraft wheelchair scooter drone" speed="13.89" length="3.77" shape="586.08,2225.83 589.84,2225.70" />
    </edge>
    <edge id=":11668331254_0" function="internal">
        <lane id=":11668331254_0_0" index="0" disallow="tram rail_urban rail rail_electric rail_fast ship container cable_car subway aircraft wheelchair scooter drone" speed="13.89" length="6.46" shape="2397.56,2159.25 2397.57,2161.16 2397.52,2162.48 2397.41,2163.79 2397.24,2165.70" />
    </edge>
    <edge id=":11668331255_0" function="internal">
        <lane id=":11668331255_0_0" index="0" allow="bus bicycle" speed="7.30" length="6.25" shape="2400.12,2163.17 2401.56,2164.23 2402.61,2165.40 2403.28,2166.69 2403.56,2168.09" />
    </edge>
    <edge id=":11668331255_1" function="internal">
        <lane id=":11668331255_1_0" index="0" disallow="tram rail_urban rail rail_electric rail_fast ship container cable_car subway aircraft wheelchair scooter drone" speed="13.89" length="8.08" shape="2403.08,2160.02 2403.56,2168.09" />
        <lane id=":11668331255_1_1" index="1" disallow="tram rail_urban rail rail_electric rail_fast ship container cable_car subway aircraft wheelchair scooter drone" speed="13.89" length="8.08" shape="2406.28,2159.83 2406.75,2167.90" />
    </edge>
    <edge id=":1172296198_0" function="internal">
        <lane id=":1172296198_0_0" index="0" disallow="tram rail_urban rail rail_electric rail_fast ship container cable_car subway aircraft wheelchair scooter drone" speed="13.89" length="8.21" shape="2298.48,597.93 2300.88,598.15 2302.49,598.67 2304.10,599.19 2306.50,599.41" />
        <lane id=":1172296198_0_1" index="1" disallow="tram rail_urban rail rail_electric rail_fast ship container cable_car subway aircraft wheelchair scooter drone" speed="13.89" length="8.21" shape="2298.42,594.73 2300.83,594.95 2302.44,595.47 2304.05,595.99 2306.45,596.21" />
        <lane id=":1172296198_0_2" index="2" disallow="tram rail_urban rail rail_electric rail_fast ship container cable_car subway aircraft wheelchair scooter drone" speed="13.89" length="8.21" shape="2298.42,594.73 2300.82,594.45 2302.41,593.87 2304.01,593.30 2306.40,593.01" />
    </edge>
    <edge id=":1172730041_0" function="internal">