<?xml version="1.0" encoding="UTF-8"?>

<!-- generated on 2026-05-18T11:43:33.949197+12:00 by Eclipse SUMO polyconvert 1.26.0
<polyconvertConfiguration xmlns:xsi="http://www.w3.org/2001/XMLSchema-instance" xsi:noNamespaceSchemaLocation="http://sumo.dlr.de/xsd/polyconvertConfiguration.xsd">

    <input>
        <net-file value="Christchurch_Central_City_main_streets.net.xml"/>
        <osm-files value="Christchurch_Central_City.osm.xml"/>
    </input>

    <output>
        <output-file value="Christchurch_Central_City_main_streets.add.xml"/>
    </output>

    <pruning>
        <prune.in-net value="true"/>
    </pruning>

</polyconvertConfiguration>
-->

<additional xmlns:xsi="http://www.w3.org/2001/XMLSchema-instance" xsi:noNamespaceSchemaLocation="http://sumo.dlr.de/xsd/additional_file.xsd">
    <location netOffset="-630978.13,4822178.30" convBoundary="-9.08,-6.98,2491.61,2325.72" origBoundary="172.621050,-43.540710,172.651519,-43.520110" projParameter="+proj=utm +zone=59 +ellps=WGS84 +datum=WGS84 +units=m +no_defs"/>

    <poly id="1000099676" type="leisure" color="207,245,201" fill="1" layer="-2.00" shape="1049.051800,968.989328 1052.057459,968.919164 1051.750140,944.226797 1049.478271,944.204772 1049.098600,924.057978 1049.105019,918.624869 1048.864910,897.353182 1051.095054,897.309364 1051.026496,896.288555 1051.006882,893.644666 1050.547090,871.066268 1046.628849,871.176584 1047.059865,944.130073 1048.637247,945.421219 1049.051800,968.989328"/>
    <poly id="1000100309" type="man_made" color="255,230,230" fill="1" layer="-1.00" shape="1072.574457,917.152660 1074.354077,917.217682 1075.853289,917.410428 1075.788288,910.812130 1075.301072,910.699490 1074.217660,911.098534 1072.570158,911.586436 1072.574457,917.152660"/>
    <poly id="1000100310" type="leisure" color="207,245,201" fill="1" layer="-2.00" shape="1049.098600,924.057978 1071.336651,917.099212 1072.574457,917.152660 1075.853289,917.410428 1088.112978,919.324909 1088.355834,918.109103 1090.182405,918.506509 1090.159517,914.051690 1075.788288,910.812130 1075.301072,910.699490 1074.217660,911.098534 1072.570158,911.586436 1049.297854,918.565528 1049.168293,922.256725 1049.098600,924.057978"/>
    <poly id="1000102543" type="leisure" color="207,245,201" fill="1" layer="-2.00" shape="1028.924629,802.784399 1036.391964,802.704358 1056.417979,802.488652 1058.252384,802.463717 1066.657013,802.365225 1066.567754,797.411741 1058.090411,797.511663 1057.338742,797.515322 1056.361049,797.534534 1053.912340,797.560429 1050.461479,797.594903 1043.366052,797.678764 1039.277081,797.736880 1028.900476,797.851859 1028.924629,802.784399"/>
    <poly id="1000102994" type="leisure" color="207,245,201" fill="1" layer="-2.00" shape="1016.367606,818.641180 1010.927494,818.636936 1010.319110,774.496182 1015.221973,774.310991 1015.288546,776.054015 1015.593595,788.702762 1015.937962,800.884100 1016.367606,818.641180"/>
    <poly id="1001617414" type="leisure" color="207,245,201" fill="1" layer="-2.00" shape="519.529987,626.907139 520.879622,626.069669 522.015918,625.069718 522.905688,623.863495 523.282077,622.445113 523.246790,621.468091 521.898640,622.794389 519.789564,625.302166 519.475932,625.797160 519.529987,626.907139"/>
    <poly id="1001617415" type="leisure" color="207,245,201" fill="1" layer="-2.00" shape="434.004127,659.978270 453.911991,650.856144 469.563403,644.383721 492.212751,636.574419 514.656320,628.991273 513.405366,625.371555 511.912249,626.311825 509.079353,627.767169 505.968914,629.083508 468.655005,641.746117 450.584579,648.932476 430.308167,657.395179 431.099827,659.024029 431.775196,659.666332 432.689270,660.115089 434.004127,659.978270"/>
    <poly id="1001617416" type="amenity" color="237,199,199" fill="1" layer="-1.00" shape="454.204290,636.873595 485.126154,626.358220 483.720219,622.252674 452.798371,632.768043 454.204290,636.873595"/>
    <poly id="1001617416#1" type="building" color="255,230,230" fill="1" layer="-1.00" shape="454.204290,636.873595 485.126154,626.358220 483.720219,622.252674 452.798371,632.768043 454.204290,636.873595"/>
    <poly id="1001617417" type="amenity" color="237,199,199" fill="1" layer="-1.00" shape="483.230703,655.071147 513.877245,644.527697 512.729334,641.217052 482.083024,651.771603 483.230703,655.071147"/>
    <poly id="1001617417#1" type="building" color="255,230,230" fill="1" layer="-1.00" shape="483.230703,655.071147 513.877245,644.527697 512.729334,641.217052 482.083024,651.771603 483.230703,655.071147"/>
    <poly id="1001617419" type="leisure" color="207,245,201" fill="1" layer="-2.00" shape="531.573824,617.005404 532.357354,616.978958 532.804393,616.692449 533.190090,616.162712 533.338210,615.470971 533.201225,608.885206 532.061094,608.863080 531.940326,611.365276 531.718396,614.480521 531.573824,617.005404"/>
    <poly id="1001617421" type="parking" color="184,184,179" fill="1" layer="-1.00" shape="522.509728,648.236272 524.004513,648.207017 524.237816,659.301704 524.377002,665.587445 524.514846,672.217634 524.647908,678.603489 522.652160,678.642548 522.519100,672.256693 522.373178,665.626662 522.242074,659.340763 522.047066,649.789667 522.509728,648.236272"/>
    <poly id="1001617422" type="amenity" color="237,199,199" fill="1" layer="-1.00" shape="522.652160,678.642548 524.647908,678.603489 524.514846,672.217634 522.519100,672.256693 522.652160,678.642548"/>
    <poly id="1001617423" type="amenity" color="237,199,199" fill="1" layer="-1.00" shape="522.519100,672.256693 524.514846,672.217634 524.377002,665.587445 522.373178,665.626662 522.519100,672.256693"/>
    <poly id="1001617424" type="amenity" color="237,199,199" fill="1" layer="-1.00" shape="522.373178,665.626662 524.377002,665.587445 524.237816,659.301704 522.242074,659.340763 522.373178,665.626662"/>
    <poly id="1001620797" type="leisure" color="207,245,201" fill="1" layer="-2.00" shape="531.050694,669.156580 533.200176,669.125620 532.758585,642.847143 530.609112,642.878103 531.050694,669.156580"/>
    <poly id="1001620798" type="leisure" color="207,245,201" fill="1" layer="-2.00" shape="533.497597,676.474860 533.531423,683.984803 533.366049,687.098942 532.359414,691.007271 531.036317,695.266215 530.600787,698.618959 530.848563,706.735784 529.378006,706.764566 529.340491,699.065819 529.459014,697.274731 529.747434,695.491428 530.701574,690.139779 531.032753,686.411326 531.024263,676.478827 533.497597,676.474860"/>
    <poly id="1001620799" type="leisure" color="207,245,201" fill="1" layer="-2.00" shape="540.079468,622.494096 542.914855,622.405265 542.909276,621.294338 544.565217,621.239703 544.491339,622.007764 546.614029,621.021832 548.218483,620.401576 545.319545,620.547205 542.330640,620.639042 541.530297,620.632488 541.121919,620.829358 540.610893,621.150451 540.312336,621.589599 540.079468,622.494096"/>
    <poly id="1001620800" type="leisure" color="207,245,201" fill="1" layer="-2.00" shape="596.799487,633.727247 613.282918,633.426666 613.264743,631.260499 601.093808,631.365528 596.816899,631.727040 596.799487,633.727247"/>
    <poly id="1001620801" type="leisure" color="207,245,201" fill="1" layer="-2.00" shape="632.949394,633.041475 649.604461,632.837436 649.577977,630.660322 632.923133,630.875467 632.949394,633.041475"/>
    <poly id="1001620802" type="leisure" color="207,245,201" fill="1" layer="-2.00" shape="654.293414,632.878902 663.851283,632.658318 663.806894,630.392671 654.240731,630.602307 654.293414,632.878902"/>
    <poly id="1001620803" type="leisure" color="207,245,201" fill="1" layer="-2.00" shape="764.745725,609.693307 766.999792,609.638000 766.488666,588.104994 764.234606,588.160301 764.745725,609.693307"/>
    <poly id="1001620804" type="leisure" color="207,245,201" fill="1" layer="-2.00" shape="788.695357,617.512020 795.974898,617.347038 797.014589,617.193323 798.399341,616.499542 799.483829,615.744987 788.712255,615.900684 788.695357,617.512020"/>
    <poly id="1001620805" type="leisure" color="207,245,201" fill="1" layer="-2.00" shape="1125.041128,612.363027 1126.608190,612.309996 1128.080042,610.292295 1124.986101,610.386457 1125.041128,612.363027"/>
    <poly id="1001620806" type="leisure" color="207,245,201" fill="1" layer="-2.00" shape="1220.333925,535.237982 1221.807721,534.964555 1221.650418,529.434665 1221.239004,529.476091 1220.333925,535.237982"/>
    <poly id="1001620807" type="leisure" color="207,245,201" fill="1" layer="-2.00" shape="1219.329269,508.003906 1220.894996,507.884216 1220.228057,505.619704 1217.359736,505.265054 1219.329269,508.003906"/>
    <poly id="1001891134" type="leisure" color="207,245,201" fill="1" layer="-2.00" shape="1557.114964,1326.098615 1566.075867,1325.888562 1565.538308,1309.289083 1551.794048,1321.092753 1556.990767,1323.490116 1557.114964,1326.098615"/>
    <poly id="1001891135" type="parking" color="184,184,179" fill="1" layer="-1.00" shape="1554.331798,1339.919312 1554.381953,1342.462610 1589.387442,1341.749979 1589.337494,1339.217787 1554.331798,1339.919312"/>
    <poly id="1001891137" type="parking" color="184,184,179" fill="1" layer="-1.00" shape="1629.104902,1340.988635 1648.658192,1340.491688 1648.591402,1337.926497 1629.038119,1338.423444 1629.104902,1340.988635"/>
    <poly id="1002564941" type="building" color="255,230,230" fill="1" layer="-1.00" shape="1589.530374,658.966834 1604.130286,672.577921 1608.947580,677.071476 1614.798145,670.845286 1616.159847,669.396279 1596.742642,651.291658 1589.530374,658.966834"/>
    <poly id="1004216441" type="building" color="255,230,230" fill="1" layer="-1.00" shape="570.093117,702.667798 591.338587,697.874340 589.167795,680.717998 569.809959,681.185895 570.093117,702.667798"/>
    <poly id="1004601060" type="building" color="255,230,230" fill="1" layer="-1.00" shape="565.421880,1166.839017 574.688303,1166.557634 574.361028,1155.620339 565.086539,1155.901880 565.421880,1166.839017"/>
    <poly id="1004601060#1" type="tourism" color="207,245,201" fill="1" layer="-2.00" shape="565.421880,1166.839017 574.688303,1166.557634 574.361028,1155.620339 565.086539,1155.901880 565.421880,1166.839017"/>
    <poly id="1004601061" type="leisure" color="207,245,201" fill="1" layer="-2.00" shape="518.303079,1105.320980 518.235493,1101.866982 518.917294,1102.009186 519.520681,1102.275138 520.119900,1102.741158 520.447642,1103.379145 520.612907,1103.975870 520.654495,1105.274968 518.303079,1105.320980"/>
    <poly id="1004601062" type="leisure" color="207,245,201" fill="1" layer="-2.00" shape="518.537628,1114.415770 518.481559,1111.550396 520.913781,1111.502803 520.969851,1114.368177 518.537628,1114.415770"/>
    <poly id="1004601063" type="leisure" color="207,245,201" fill="1" layer="-2.00" shape="518.626727,1123.513407 520.945827,1123.468027 520.890627,1120.647078 518.571528,1120.692457 518.626727,1123.513407"/>
    <poly id="1004601064" type="leisure" color="207,245,201" fill="1" layer="-2.00" shape="518.845313,1130.553094 518.749494,1127.721829 521.092185,1127.642657 521.188004,1130.473922 518.845313,1130.553094"/>
    <poly id="1004601065" type="leisure" color="207,245,201" fill="1" layer="-2.00" shape="490.463585,1083.022790 494.317737,1082.936278 494.166426,1076.028598 490.312279,1076.115111 490.463585,1083.022790"/>
    <poly id="1004601066" type="leisure" color="207,245,201" fill="1" layer="-2.00" shape="490.257866,1072.094228 495.574133,1071.956889 495.394193,1065.238645 492.219024,1065.322986 490.115996,1066.908468 490.257866,1072.094228"/>
    <poly id="1004601067" type="leisure" color="207,245,201" fill="1" layer="-2.00" shape="489.251402,1045.026877 489.249248,1040.371681 494.906605,1040.316551 495.047664,1047.113328 492.371967,1047.110124 491.500018,1046.338348 490.246988,1045.507365 489.251402,1045.026877"/>
    <poly id="1004601068" type="leisure" color="207,245,201" fill="1" layer="-2.00" shape="483.821762,1071.597959 480.752764,1071.324685 477.822086,1070.270980 475.125131,1068.768288 473.100633,1066.930240 471.261376,1064.644154 469.944131,1061.770119 469.605877,1059.354679 471.975869,1059.019450 472.998526,1061.710372 474.002067,1063.423956 476.533332,1066.374236 478.841339,1067.828985 481.043909,1068.852492 483.727871,1069.277732 483.821762,1071.597959"/>
    <poly id="1004601069" type="leisure" color="207,245,201" fill="1" layer="-2.00" shape="440.718006,1112.393863 419.033974,1104.751770 416.776324,1110.006666 415.127955,1109.627813 412.025126,1118.787854 406.325023,1115.832842 398.543478,1116.396057 395.715859,1113.584867 394.924832,1109.922806 395.776093,1106.328633 397.142549,1102.624395 405.279461,1093.777025 407.301884,1092.615340 409.560283,1092.360088 412.214842,1092.108201 440.338704,1091.758252 440.718006,1112.393863"/>
    <poly id="1004621549" type="man_made" color="255,230,230" fill="1" layer="-1.00" shape="1375.694100,1484.030817 1376.737140,1481.988183 1377.648054,1480.214800 1368.322531,1475.876508 1360.951751,1472.277441 1359.458945,1471.595769 1347.674859,1466.383696 1346.916821,1468.120733 1346.058542,1470.104173 1357.254038,1475.394502 1358.723913,1476.143288 1366.123083,1479.541810 1375.694100,1484.030817"/>
    <poly id="1004776206" type="man_made" color="255,230,230" fill="1" layer="-1.00" shape="74.537804,1011.074819 79.906498,988.760573 78.452757,988.411174 76.885459,988.041769 71.508676,1010.356170 74.537804,1011.074819"/>
    <poly id="100527568" type="amenity" color="237,199,199" fill="1" layer="-1.00" shape="1485.466711,1206.307654 1485.071442,1183.383541 1474.211793,1183.630918 1474.418764,1206.436526 1485.466711,1206.307654"/>
    <poly id="100527568#1" type="building" color="255,230,230" fill="1" layer="-1.00" shape="1485.466711,1206.307654 1485.071442,1183.383541 1474.211793,1183.630918 1474.418764,1206.436526 1485.466711,1206.307654"/>
    <poly id="100527569" type="building" color="255,230,230" fill="1" layer="-1.00" shape="1450.659515,1121.465657 1453.027323,1121.430106 1453.109633,1126.017087 1461.408540,1125.864649 1461.549532,1133.839150 1473.242489,1133.630919 1473.854031,1168.350034 1473.937448,1172.992545 1451.732476,1173.452375 1451.566234,1172.400162 1450.659515,1121.465657"/>
    <poly id="1006963114" type="shop" color="237,199,255" fill="1" layer="-1.00" shape="1502.260177,25.004503 1503.514207,76.298901 1595.732777,74.579658 1595.042142,24.429616 1571.762175,23.466857 1502.260177,25.004503"/>
    <poly id="1009035497" type="parking" color="184,184,179" fill="1" layer="-1.00" shape="607.849306,1171.196934 607.056784,1121.226945 591.945187,1121.467272 592.351125,1147.568668 597.256434,1147.494849 597.378935,1155.403026 591.722131,1155.491558 591.977808,1171.441026 607.849306,1171.196934"/>
    <poly id="1009035499" type="leisure" color="207,245,201" fill="1" layer="-2.00" shape="1045.267594,1082.489666 1047.383581,1082.392542 1047.294950,1080.349972 1045.170883,1080.447254 1045.267594,1082.489666"/>
    <poly id="1009035500" type="leisure" color="207,245,201" fill="1" layer="-2.00" shape="1045.015116,1071.284242 1047.270867,1071.306587 1047.286846,1069.239740 1045.031313,1069.228501 1045.015116,1071.284242"/>
    <poly id="1009035501" type="leisure" color="207,245,201" fill="1" layer="-2.00" shape="1044.843856,1061.332696 1047.033433,1061.278568 1046.977779,1059.268681 1044.788202,1059.322809 1044.843856,1061.332696"/>
    <poly id="1009035502" type="leisure" color="207,245,201" fill="1" layer="-2.00" shape="1044.695303,1051.714016 1046.756027,1051.684640 1046.731821,1049.629694 1044.663017,1049.659228 1044.695303,1051.714016"/>
    <poly id="1009035503" type="leisure" color="207,245,201" fill="1" layer="-2.00" shape="1044.511169,1041.107210 1046.685233,1041.086718 1046.673690,1039.264840 1044.499626,1039.285332 1044.511169,1041.107210"/>
    <poly id="1009035504" type="leisure" color="207,245,201" fill="1" layer="-2.00" shape="1044.035035,1031.272757 1046.426830,1031.225767 1046.384936,1029.093395 1043.993142,1029.140385 1044.035035,1031.272757"/>
    <poly id="1009035505" type="leisure" color="207,245,201" fill="1" layer="-2.00" shape="1044.040706,1019.217871 1046.165408,1019.153907 1046.091629,1017.044382 1043.975226,1017.119293 1044.040706,1019.217871"/>
    <poly id="1009035506" type="leisure" color="207,245,201" fill="1" layer="-2.00" shape="1043.852614,1010.055493 1046.074933,1010.022943 1046.043737,1008.023685 1043.821420,1008.056235 1043.852614,1010.055493"/>
    <poly id="1009035507" type="leisure" color="207,245,201" fill="1" layer="-2.00" shape="1043.776535,1002.068616 1045.910185,1002.048918 1045.898205,1000.204828 1043.764556,1000.224526 1043.776535,1002.068616"/>
    <poly id="1009042011" type="building" color="255,230,230" fill="1" layer="-1.00" shape="2093.125042,338.196649 2091.731959,334.380016 2084.168443,313.664345 2082.990776,310.521183 2077.991309,312.342322 2077.265175,310.367927 2066.873197,314.162411 2078.946384,347.099195 2085.976156,344.537887 2085.223360,342.441806 2084.763086,341.239880 2093.125042,338.196649"/>
    <poly id="1009042012" type="landuse" color="194,194,130" fill="1" layer="-3.00" shape="2069.184920,311.716769 2066.681748,297.556041 2080.263834,286.287690 2086.244684,283.413837 2093.215173,303.163531 2095.398705,309.753236 2094.870075,309.997027 2088.816589,312.061260 2088.180427,310.140637 2084.928666,311.238315 2083.386363,306.824670 2069.184920,311.716769"/>
    <poly id="1009042014" type="leisure" color="207,245,201" fill="1" layer="-2.00" shape="2130.256662,224.756382 2122.423311,223.467216 2115.103942,220.379072 2108.730071,215.650061 2103.646755,209.562221 2100.151675,202.454084 2098.438571,194.721793 2098.597031,186.807993 2100.627771,179.157088 2104.409873,172.193670 2109.732891,166.310772 2116.296408,161.847657 2123.725318,159.045072 2131.610877,158.077770 2139.744789,159.038762 2147.407997,161.942296 2154.120302,166.620123 2159.504112,172.779743 2163.212830,180.061385 2165.043520,188.013542 2164.881900,196.171841 2162.726578,204.058557 2158.721372,211.181977 2153.100299,217.115261 2146.196091,221.518499 2138.431680,224.116655 2130.256662,224.756382"/>
    <poly id="1009042014#1" type="sport" color="79,230,125" fill="1" layer="-2.00" shape="2130.256662,224.756382 2122.423311,223.467216 2115.103942,220.379072 2108.730071,215.650061 2103.646755,209.562221 2100.151675,202.454084 2098.438571,194.721793 2098.597031,186.807993 2100.627771,179.157088 2104.409873,172.193670 2109.732891,166.310772 2116.296408,161.847657 2123.725318,159.045072 2131.610877,158.077770 2139.744789,159.038762 2147.407997,161.942296 2154.120302,166.620123 2159.504112,172.779743 2163.212830,180.061385 2165.043520,188.013542 2164.881900,196.171841 2162.726578,204.058557 2158.721372,211.181977 2153.100299,217.115261 2146.196091,221.518499 2138.431680,224.116655 2130.256662,224.756382"/>
    <poly id="1009042015" type="amenity" color="237,199,199" fill="1" layer="-1.00" shape="2036.182663,338.635398 2037.383507,342.133644 2037.932044,343.711581 2040.126854,350.056649 2034.402602,352.014317 2030.458639,340.604170 2036.182663,338.635398"/>
    <poly id="1009042015#1" type="building" color="255,230,230" fill="1" layer="-1.00" shape="2036.182663,338.635398 2037.383507,342.133644 2037.932044,343.711581 2040.126854,350.056649 2034.402602,352.014317 2030.458639,340.604170 2036.182663,338.635398"/>
    <poly id="1009042016" type="amenity" color="237,199,199" fill="1" layer="-1.00" shape="2066.264419,351.583434 2068.215434,357.044484 2040.163676,367.021611 2036.133459,355.746500 2037.538154,355.252050 2036.323127,351.854080 2040.288063,350.442323 2043.582098,359.643239 2066.264419,351.583434"/>
    <poly id="1009042016#1" type="building" color="255,230,230" fill="1" layer="-1.00" shape="2066.264419,351.583434 2068.215434,357.044484 2040.163676,367.021611 2036.133459,355.746500 2037.538154,355.252050 2036.323127,351.854080 2040.288063,350.442323 2043.582098,359.643239 2066.264419,351.583434"/>
    <poly id="1009216321" type="building" color="255,230,230" fill="1" layer="-1.00" shape="2097.626602,307.564785 2109.853210,303.356154 2108.001547,298.015363 2106.715697,294.307714 2105.978397,292.177996 2107.889225,291.529068 2107.046171,288.957027 2106.677411,287.886616 2104.427244,288.542265 2101.512951,279.744942 2099.879127,275.199788 2097.167892,267.676146 2096.613927,267.864886 2085.438753,271.697136 2087.121762,276.685738 2086.463862,276.932088 2095.298475,302.244539 2095.732131,302.102623 2097.626602,307.564785"/>
    <poly id="1009216322" type="building" color="255,230,230" fill="1" layer="-1.00" shape="2101.512951,279.744942 2103.794333,279.033122 2106.238487,280.417958 2106.952944,280.170485 2114.417829,277.544972 2115.768098,281.240233 2113.810337,281.967866 2117.706695,292.601180 2116.608405,294.689487 2116.518931,295.069015 2111.328866,292.571979 2109.799187,287.980322 2107.046171,288.957027 2106.677411,287.886616 2104.427244,288.542265 2101.512951,279.744942"/>
    <poly id="1009216323" type="building" color="255,230,230" fill="1" layer="-1.00" shape="2117.706695,292.601180 2126.730816,289.122588 2128.100058,289.695426 2128.875287,288.435693 2137.339551,285.257051 2138.085445,284.964510 2140.066594,285.825205 2140.886053,283.942407 2141.954248,283.599038 2140.618143,279.803506 2143.409568,278.726032 2141.141083,272.338012 2131.452932,275.752008 2116.538451,280.958320 2115.768098,281.240233 2113.810337,281.967866 2117.706695,292.601180"/>
    <poly id="1009216324" type="building" color="255,230,230" fill="1" layer="-1.00" shape="2141.141083,272.338012 2140.619845,270.915088 2140.014072,269.304961 2141.949318,264.178015 2137.526881,262.076877 2135.961413,257.719254 2133.327625,258.593614 2126.135710,261.124858 2131.452932,275.752008 2141.141083,272.338012"/>
    <poly id="1009216325" type="building" color="255,230,230" fill="1" layer="-1.00" shape="2116.538451,280.958320 2112.359134,269.097349 2111.649814,267.155956 2109.643580,267.884549 2104.419025,269.765719 2104.230936,269.247253 2103.350568,266.831497 2101.153580,260.786474 2100.743326,259.661331 2130.018605,249.048610 2130.078242,249.202975 2132.462444,248.378003 2134.642197,254.367806 2132.209737,255.204845 2133.327625,258.593614 2126.135710,261.124858 2131.452932,275.752008 2116.538451,280.958320"/>
    <poly id="1009216331" type="leisure" color="207,245,201" fill="1" layer="-2.00" shape="2093.381966,340.558092 2097.549406,351.819344 2081.745592,357.432052 2080.283037,353.372363 2078.124083,347.615452 2086.243663,344.577030 2085.747991,343.220259 2093.381966,340.558092"/>
    <poly id="100953812" type="parking" color="184,184,179" fill="1" layer="-1.00" shape="536.742323,518.488621 606.569597,516.810369 607.743254,565.595244 547.319947,567.067188 547.362704,570.077260 537.835289,570.197093 536.742323,518.488621"/>
    <poly id="100953812#1" type="building" color="255,230,230" fill="1" layer="-1.00" shape="536.742323,518.488621 606.569597,516.810369 607.743254,565.595244 547.319947,567.067188 547.362704,570.077260 537.835289,570.197093 536.742323,518.488621"/>
    <poly id="100953832" type="amenity" color="237,199,199" fill="1" layer="-1.00" shape="545.762283,881.854273 584.525380,881.217661 584.703546,891.969004 584.776320,896.511718 584.838657,900.521338 584.849312,901.065537 583.798666,901.074997 584.127846,920.778335 569.082213,921.061780 557.914011,921.213741 557.934844,922.691011 546.394731,922.839123 545.762283,881.854273"/>
    <poly id="100953832#1" type="building" color="255,230,230" fill="1" layer="-1.00" shape="545.762283,881.854273 584.525380,881.217661 584.703546,891.969004 584.776320,896.511718 584.838657,900.521338 584.849312,901.065537 583.798666,901.074997 584.127846,920.778335 569.082213,921.061780 557.914011,921.213741 557.934844,922.691011 546.394731,922.839123 545.762283,881.854273"/>
    <poly id="101079255" type="building" color="255,230,230" fill="1" layer="-1.00" shape="643.775422,1131.284918 656.438652,1131.092434 656.637053,1144.109893 658.536192,1144.083803 658.807380,1162.055058 653.465493,1162.126362 653.282142,1149.464141 644.053316,1149.600462 643.775422,1131.284918"/>
    <poly id="101079259" type="building" color="255,230,230" fill="1" layer="-1.00" shape="677.248196,1192.280642 657.854602,1192.649438 658.031434,1202.089782 660.245515,1202.046413 660.484755,1215.085292 675.999943,1214.803581 675.744138,1200.920639 677.408738,1200.888028 677.248196,1192.280642"/>
    <poly id="101079260" type="building" color="255,230,230" fill="1" layer="-1.00" shape="640.383618,1166.948948 632.804069,1167.097393 632.675556,1160.122603 626.251532,1160.248410 626.061040,1150.108381 626.917575,1150.091607 640.056721,1149.845394 640.383618,1166.948948"/>
    <poly id="101079262" type="building" color="255,230,230" fill="1" layer="-1.00" shape="940.073711,1286.208923 939.083735,1242.364576 941.784745,1239.122877 953.762211,1238.987744 954.689709,1286.233097 940.073711,1286.208923"/>
    <poly id="101079268" type="building" color="255,230,230" fill="1" layer="-1.00" shape="708.989213,1209.424211 710.742267,1209.367638 710.285302,1194.710910 707.288060,1194.802973 707.221164,1192.626652 699.586762,1192.865129 700.093813,1209.254092 703.187810,1209.149026 703.210689,1209.904082 705.828149,1209.819463 705.874559,1211.362894 709.049581,1211.267348 708.989213,1209.424211"/>
    <poly id="101079271" type="building" color="255,230,230" fill="1" layer="-1.00" shape="589.165723,1124.010410 563.129082,1124.453444 563.230313,1130.451056 565.186010,1130.423885 565.332425,1139.142649 570.536488,1139.051890 570.609282,1143.183518 583.385224,1142.966746 583.359785,1141.667332 587.376016,1141.599815 587.320172,1138.334463 585.509921,1138.358793 585.383883,1131.095086 589.278683,1131.018835 589.165723,1124.010410"/>
    <poly id="101079271#1" type="tourism" color="207,245,201" fill="1" layer="-2.00" shape="589.165723,1124.010410 563.129082,1124.453444 563.230313,1130.451056 565.186010,1130.423885 565.332425,1139.142649 570.536488,1139.051890 570.609282,1143.183518 583.385224,1142.966746 583.359785,1141.667332 587.376016,1141.599815 587.320172,1138.334463 585.509921,1138.358793 585.383883,1131.095086 589.278683,1131.018835 589.165723,1124.010410"/>
    <poly id="101079274" type="building" color="255,230,230" fill="1" layer="-1.00" shape="689.906240,1128.692459 690.184055,1149.885592 677.859735,1150.049278 677.581958,1128.856145 689.906240,1128.692459"/>
    <poly id="101079275" type="building" color="255,230,230" fill="1" layer="-1.00" shape="763.183278,1152.154680 745.802255,1152.917585 746.235805,1162.663991 749.910709,1162.503074 749.999031,1164.534541 759.642409,1164.101079 759.594436,1162.890989 762.397078,1162.769385 762.195556,1158.262526 763.447386,1158.204654 763.183278,1152.154680"/>
    <poly id="101079281" type="building" color="255,230,230" fill="1" layer="-1.00" shape="716.122096,1191.430077 716.068343,1185.387091 727.100711,1185.293100 727.154255,1191.324980 716.122096,1191.430077"/>
    <poly id="101079285" type="building" color="255,230,230" fill="1" layer="-1.00" shape="615.085960,1158.078333 623.738904,1157.842225 623.551193,1151.146354 624.722651,1151.112303 624.620949,1147.570089 623.635343,1147.600501 614.909906,1147.849139 614.029129,1147.866386 614.139742,1151.863949 614.907392,1151.848917 615.085960,1158.078333"/>
    <poly id="101079290" type="building" color="255,230,230" fill="1" layer="-1.00" shape="710.285302,1194.710910 710.130151,1189.680954 699.498295,1190.000388 699.586762,1192.865129 707.221164,1192.626652 707.288060,1194.802973 710.285302,1194.710910"/>
    <poly id="101079292" type="building" color="255,230,230" fill="1" layer="-1.00" shape="623.635343,1147.600501 623.405155,1139.561108 624.309954,1139.532278 624.182989,1135.112841 623.383237,1135.139613 623.329668,1133.229680 614.474961,1133.480849 614.695536,1141.442658 613.055409,1141.485885 613.173885,1145.472185 614.838254,1145.428483 614.909906,1147.849139 623.635343,1147.600501"/>
    <poly id="101079295" type="building" color="255,230,230" fill="1" layer="-1.00" shape="761.283752,1136.904048 745.274086,1137.106772 745.405122,1147.503509 746.310358,1147.496876 746.328618,1148.840873 761.182580,1148.649693 761.172807,1147.738834 762.781049,1147.718417 762.735402,1144.152883 761.523324,1144.176644 761.490063,1141.655242 762.767002,1141.641320 762.727886,1138.408969 761.305499,1138.425743 761.283752,1136.904048"/>
    <poly id="101079299" type="building" color="255,230,230" fill="1" layer="-1.00" shape="626.917575,1150.091607 626.865584,1136.704640 626.074565,1136.764573 625.948402,1133.211728 626.716050,1133.196695 626.630559,1131.720691 630.880032,1131.593028 630.683219,1129.385921 635.434551,1129.292868 635.365797,1131.560728 639.552366,1131.523175 639.725254,1132.508611 640.800767,1133.354155 640.907513,1136.740724 639.674829,1137.775910 640.056721,1149.845394 626.917575,1150.091607"/>
    <poly id="101079299#1" type="tourism" color="207,245,201" fill="1" layer="-2.00" shape="626.917575,1150.091607 626.865584,1136.704640 626.074565,1136.764573 625.948402,1133.211728 626.716050,1133.196695 626.630559,1131.720691 630.880032,1131.593028 630.683219,1129.385921 635.434551,1129.292868 635.365797,1131.560728 639.552366,1131.523175 639.725254,1132.508611 640.800767,1133.354155 640.907513,1136.740724 639.674829,1137.775910 640.056721,1149.845394 626.917575,1150.091607"/>
    <poly id="101079301" type="amenity" color="237,199,199" fill="1" layer="-1.00" shape="672.498956,1131.000032 660.540904,1131.289836 660.852689,1143.905102 666.371028,1143.763672 666.438751,1146.395501 672.878272,1146.236021 672.498956,1131.000032"/>
    <poly id="101079301#1" type="building" color="255,230,230" fill="1" layer="-1.00" shape="672.498956,1131.000032 660.540904,1131.289836 660.852689,1143.905102 666.371028,1143.763672 666.438751,1146.395501 672.878272,1146.236021 672.498956,1131.000032"/>