<?xml version='1.0' encoding='UTF-8'?>
<routes><vType id="car" vClass="passenger" /><vType id="bus" vClass="bus" color="0,122,135" /><flow id="I3105_I3210__2_06_30_Left_car" type="car" begin="23400" end="24300" number="8" from="-139811056#1" to="-139640898" /><flow id="I3105_I3100__4_06_30_Thru_car" type="car" begin="23400" end="24300" number="189" from="-139811056#1" to="139484443" /><flow id="I3105_I2967__6_06_30_Right_car" type="car" begin="23400" end="24300" number="49" from="-139811056#1" to="139484443" /><flow id="I3105_I3104__18_06_30_Left_car" type="car" begin="23400" end="24300" number="47" from="-530438714" to="139484443" /><flow id="I3105_I3210__20_06_30_Thru_car" type="car" begin="23400" end="24300" number="93" from="-530438714" to="-139640898" /><flow id="I3105___35_06_30_Bear_Left_car" type="car" begin="23400" end="24300" number="21" from="4830350" to="139811056#1" /><flow id="I3105_I3104__36_06_30_Thru_car" type="car" begin="23400" end="24300" number="149" from="4830350" to="139484443" /><flow id="I3105_I3100__50_06_30_Left_car" type="car" begin="23400" end="24300" number="41" from="-1368153905" to="139484443" /><flow id="I3105_I2967__52_06_30_Thru_car" type="car" begin="23400" end="24300" number="81" from="-1368153905" to="139484443" /><flow id="I3105_I3104__54_06_30_Right_car" type="car" begin="23400" end="24300" number="41" from="-1368153905" to="139484443" /><flow id="I3105_I3210__2_06_45_Left_car" type="car" begin="24300" end="25200" number="7" from="-139811056#1" to="-139640898" /><flow id="I3105_I3100__4_06_45_Thru_car" type="car" begin="24300" end="25200" number="198" from="-139811056#1" to="139484443" /><flow id="I3105_I2967__6_06_45_Right_car" type="car" begin="24300" end="25200" number="41" from="-139811056#1" to="139484443" /><flow id="I3105_I3104__18_06_45_Left_car" type="car" begin="24300" end="25200" number="41" from="-530438714" to="139484443" /><flow id="I3105_I3210__20_06_45_Thru_car" type="car" begin="24300" end="25200" number="99" from="-530438714" to="-139640898" /><flow id="I3105___35_06_45_Bear_Left_car" type="car" begin="24300" end="25200" number="27" from="4830350" to="139811056#1" /><flow id="I3105_I3104__36_06_45_Thru_car" type="car" begin="24300" end="25200" number="143" from="4830350" to="139484443" /><flow id="I3105_I3100__50_06_45_Left_car" type="car" begin="24300" end="25200" number="83" from="-1368153905" to="139484443" /><flow id="I3105_I2967__52_06_45_Thru_car" type="car" begin="24300" end="25200" number="40" from="-1368153905" to="139484443" /><flow id="I3105_I3104__54_06_45_Right_car" type="car" begin="24300" end="25200" number="40" from="-1368153905" to="139484443" /><flow id="I2537_I2621__18_07_00_Left_car" type="car" begin="25200" end="26100" number="4" from="30861274" to="-182458340" /><flow id="I2537___19_07_00_Bear_Left_car" type="car" begin="25200" end="26100" number="22" from="30861274" to="-30861274" /><flow id="I2537___21_07_00_Bear_Right_car" type="car" begin="25200" end="26100" number="7" from="30861274" to="-30861274" /><flow id="I2537_I2632__45_07_00_Bear_Right_car" type="car" begin="25200" end="26100" number="10" from="611443066#0" to="-30861274" /><flow id="I2537_I2621__47_07_00_Hard_Right_car" type="car" begin="25200" end="26100" number="4" from="611443066#0" to="-182458340" /><flow id="I2537_I2632__59_07_00_Bear_Left_car" type="car" begin="25200" end="26100" number="7" from="182458340" to="-30861274" /><flow id="I2537_I2621__61_07_00_Bear_Right_car" type="car" begin="25200" end="26100" number="4" from="182458340" to="-182458340" /><flow id="I2554_I2610__45_07_00_Bear_Right_car" type="car" begin="25200" end="26100" number="1" from="-988781906" to="4891423" /><flow id="I2554_I2610__59_07_00_Bear_Left_car" type="car" begin="25200" end="26100" number="12" from="1069206897#0" to="4891423" /><flow id="I2605___2_07_00_Right_car" type="car" begin="25200" end="26100" number="1" from="1069206897#0" to="-13061690#0" /><flow id="I2605_I2621__4_07_00_Thru_car" type="car" begin="25200" end="26100" number="11" from="1069206897#0" to="-182458340" /><flow id="I2605_I2755__6_07_00_Left_car" type="car" begin="25200" end="26100" number="1" from="1069206897#0" to="1373259079#1" /><flow id="I2606_I2605__4_07_00_Thru_car" type="car" begin="25200" end="26100" number="6" from="1069206897#0" to="-182458340" /><flow id="I2610_I2554_inf_4_07_00_Thru_car" type="car" begin="25200" end="26100" number="1" from="961036242" to="-13061690#0" /><flow id="I2610_I2611__36_07_00_Thru_car" type="car" begin="25200" end="26100" number="1" from="-988781906" to="-1015757969#0" /><flow id="I2610_I2728__38_07_00_Right_car" type="car" begin="25200" end="26100" number="4" from="-988781906" to="1373259079#1" /><flow id="I2610_I2554__52_07_00_Thru_car" type="car" begin="25200" end="26100" number="9" from="-139811056#1" to="-13061690#0" /><flow id="I2610_I2611__54_07_00_Right_car" type="car" begin="25200" end="26100" number="2" from="-139811056#1" to="-1015757969#0" /><flow id="I2611_I2610__4_07_00_Thru_car" type="car" begin="25200" end="26100" number="6" from="961036242" to="4891423" /><flow id="I2611_I2727__20_07_00_Thru_car" type="car" begin="25200" end="26100" number="10" from="1015757969#0" to="-13061690#0" /><flow id="I2611_I2610__22_07_00_Right_car" type="car" begin="25200" end="26100" number="2" from="1015757969#0" to="4891423" /><flow id="I2611___34_07_00_Left_car" type="car" begin="25200" end="26100" number="2" from="-530438714" to="1015757970#1" /><flow id="I2611_I2727_inf_36_07_00_Thru_car" type="car" begin="25200" end="26100" number="4" from="-530438714" to="-13061690#0" /><flow id="I2621_I2715__34_07_00_Right_car" type="car" begin="25200" end="26100" number="1" from="182458340" to="-235547876#0" /><flow id="I2621___37_07_00_Bear_Left_car" type="car" begin="25200" end="26100" number="8" from="182458340" to="-1255161076#0" /><flow id="I2621_I2605__59_07_00_Bear_Right_car" type="car" begin="25200" end="26100" number="9" from="-988781906" to="-182458340" /><flow id="I2621_I2715__61_07_00_Bear_Left_car" type="car" begin="25200" end="26100" number="6" from="-988781906" to="-235547876#0" /><flow id="I2629_I2731__2_07_00_Left_car" type="car" begin="25200" end="26100" number="1" from="961036242" to="139811056#1" /><flow id="I2629_I2731_inf_4_07_00_Thru_car" type="car" begin="25200" end="26100" number="4" from="961036242" to="139811056#1" /><flow id="I2629_I2731__20_07_00_Thru_car" type="car" begin="25200" end="26100" number="41" from="1015757969#0" to="139811056#1" /><flow id="I2629_I2731__20_07_00_Thru_bus" type="bus" begin="25200" end="26100" number="1"><route edges="1015757969#0 1026983480#1 1015756825#0 777634273#1 1015754936#0 139810524#1 1015753884 103086816#0 103086816#1 1018478676#0 1018478676#1 -1018478675#1 -1018478675#0 -114915928 -770109403#2 -1056138896#0 -436515354 -1056138897#1 -571961656#0 571961655#0 571961655#1 571961655#2 -436514739#2 -436514739#1 -436514739#0 -1228958071 -1015728523 -369800173#0 392044395 369800174 508372189 508372186 369800173#0 1015728523 1228958071 436514739#0 436514739#1 436514739#2 436515355#0 436515355#1 -1235089649 1189761076#2 1235089650 335813776#3 823329197#0 770109403#2 114915928 1018478675#0 1018478675#1 103086818 182824587#0 182824587#1 139811056#1" /></flow><flow id="I2629___34_07_00_Left_car" type="car" begin="25200" end="26100" number="1" from="-530438714" to="1015757970#1" /><flow id="I2629_I2731_inf_36_07_00_Thru_car" type="car" begin="25200" end="26100" number="4" from="-530438714" to="139811056#1" /><flow id="I2629_I2731_inf_52_07_00_Thru_car" type="car" begin="25200" end="26100" number="29" from="1069206897#0" to="139811056#1" /><flow id="I2629_I2731_inf_52_07_00_Thru_bus" type="bus" begin="25200" end="26100" number="1"><route edges="1069206897#0 139810524#1 1015753884 103086816#0 103086816#1 1018478676#0 1018478676#1 -1018478675#1 -1018478675#0 -114915928 -770109403#2 -1056138896#0 -436515354 -1056138897#1 -571961656#0 571961655#0 571961655#1 571961655#2 -436514739#2 -436514739#1 -436514739#0 -1228958071 -1015728523 -369800173#0 392044395 369800174 508372189 508372186 369800173#0 1015728523 1228958071 436514739#0 436514739#1 436514739#2 436515355#0 436515355#1 -1235089649 1189761076#2 1235089650 335813776#3 823329197#0 770109403#2 114915928 1018478675#0 1018478675#1 103086818 182824587#0 182824587#1 139811056#1" /></flow><flow id="I2629___54_07_00_Right_car" type="car" begin="25200" end="26100" number="1" from="1069206897#0" to="-961036242" /><flow id="I2632_I2715__17_07_00_Hard_Left_car" type="car" begin="25200" end="26100" number="1" from="182458340" to="-235547876#0" /><flow id="I2632_I2712__20_07_00_Thru_car" type="car" begin="25200" end="26100" number="22" from="182458340" to="-182458340" /><flow id="I2632_I2537__27_07_00_Bear_Left_car" type="car" begin="25200" end="26100" number="1" from="182458340" to="-182458340" /><flow id="I2632_I2715__28_07_00_Thru_car" type="car" begin="25200" end="26100" number="3" from="182458340" to="-235547876#0" /><flow id="I2632___49_07_00_Hard_Left_car" type="car" begin="25200" end="26100" number="1" from="4890801" to="-182458340" /><flow id="I2632_I2537__52_07_00_Thru_car" type="car" begin="25200" end="26100" number="12" from="4890801" to="-182458340" /><flow id="I2632_I2712__59_07_00_Bear_Left_car" type="car" begin="25200" end="26100" number="7" from="-988781906" to="-182458340" /><flow id="I2632_I2712_inf_60_07_00_Thru_car" type="car" begin="25200" end="26100" number="8" from="-988781906" to="-182458340" /><flow id="I2632_I2537__63_07_00_Hard_Right_car" type="car" begin="25200" end="26100" number="5" from="-988781906" to="-182458340" /><flow id="I2715_I2754_inf_28_07_00_Thru_car" type="car" begin="25200" end="26100" number="1" from="182458340" to="-235547876#0" /><flow id="I2715_I2632__35_07_00_Bear_Left_car" type="car" begin="25200" end="26100" number="4" from="182458340" to="-30861274" /><flow id="I2715_I2754__36_07_00_Thru_car" type="car" begin="25200" end="26100" number="5" from="182458340" to="-235547876#0" /><flow id="I2715_I2840__38_07_00_Right_car" type="car" begin="25200" end="26100" number="3" from="182458340" to="-235547876#0" /><flow id="I2715___50_07_00_Left_car" type="car" begin="25200" end="26100" number="1" from="4830350" to="-1255161076#0" /><flow id="I2715_I2621__52_07_00_Thru_car" type="car" begin="25200" end="26100" number="4" from="4830350" to="-182458340" /><flow id="I2715___53_07_00_Bear_Right_car" type="car" begin="25200" end="26100" number="1" from="4830350" to="-1255161076#0" /><flow id="I2715___57_07_00_Hard_Left_car" type="car" begin="25200" end="26100" number="1" from="-988781906" to="-1255161076#0" /><flow id="I2715_I2840__59_07_00_Bear_Left_car" type="car" begin="25200" end="26100" number="1" from="-988781906" to="-235547876#0" /><flow id="I2715_I2632__60_07_00_Thru_car" type="car" begin="25200" end="26100" number="9" from="-988781906" to="-30861274" /><flow id="I2716_I2718__36_07_00_Thru_car" type="car" begin="25200" end="26100" number="14" from="4890801" to="-1255161076#0" /><flow id="I2716_I2832__38_07_00_Right_car" type="car" begin="25200" end="26100" number="2" from="4890801" to="-961036242" /><flow id="I2716_I2718_inf_52_07_00_Thru_car" type="car" begin="25200" end="26100" number="1" from="-1373259079#1" to="-1255161076#0" /><flow id="I2718_I2719__36_07_00_Thru_car" type="car" begin="25200" end="26100" number="18" from="-988781906" to="-13061690#0" /><flow id="I2719_I2815__20_07_00_Thru_car" type="car" begin="25200" end="26100" number="1" from="-988781906" to="-13061690#0" /><flow id="I2719_I2718__22_07_00_Right_car" type="car" begin="25200" end="26100" number="2" from="-988781906" to="-1255161076#0" /><flow id="I2719_I2815_inf_36_07_00_Thru_car" type="car" begin="25200" end="26100" number="18" from="-988781906" to="-13061690#0" /><flow id="I2719_I2815__38_07_00_Right_car" type="car" begin="25200" end="26100" number="2" from="-988781906" to="-13061690#0" /><flow id="I2719_I2718__50_07_00_Left_car" type="car" begin="25200" end="26100" number="1" from="-1373259079#1" to="-1255161076#0" /><flow id="I2719_I2815_inf_52_07_00_Thru_car" type="car" begin="25200" end="26100" number="2" from="-1373259079#1" to="-13061690#0" /><flow id="I2727_I2853__20_07_00_Thru_car" type="car" begin="25200" end="26100" number="14" from="-530438714" to="-1015757969#0" /><flow id="I2727_I2728__22_07_00_Right_car" type="car" begin="25200" end="26100" number="5" from="-530438714" to="1373259079#1" /><flow id="I2727_I2611__34_07_00_Left_car" type="car" begin="25200" end="26100" number="1" from="-530438714" to="-1015757969#0" /><flow id="I2727_I2853_inf_36_07_00_Thru_car" type="car" begin="25200" end="26100" number="22" from="-530438714" to="-1015757969#0" /><flow id="I2728_I2727__36_07_00_Thru_car" type="car" begin="25200" end="26100" number="22" from="-988781906" to="-13061690#0" /><flow id="I2728_I2850__38_07_00_Right_car" type="car" begin="25200" end="26100" number="4" from="-988781906" to="-1015757969#0" /><flow id="I2728_I2610__52_07_00_Thru_car" type="car" begin="25200" end="26100" number="11" from="-139811056#1" to="4891423" /><flow id="I2731___18_07_00_Left_car" type="car" begin="25200" end="26100" number="2" from="1015757969#0" to="-961036242" /><flow id="I2731_I2859__20_07_00_Thru_car" type="car" begin="25200" end="26100" number="42" from="1015757969#0" to="-1069206897#0" /><flow id="I2731_I2859__20_07_00_Thru_bus" type="bus" begin="25200" end="26100" number="1"><route edges="1015757969#0 1026983480#1 1015756825#0 777634273#1 1015754936#0 139810524#1 1015753884 103086816#0 103086816#1 1018478676#0 1018478676#1 -1018478675#1 -1018478675#0 -114915928 -770109403#2 -1056138896#0 -436515354 -1056138897#1 -571961656#0 571961655#0 571961655#1 571961655#2 -436514739#2 -436514739#1 -436514739#0 -1228958071 -1015728523 -369800173#0 392044395 369800174 508372189 508372186 369800173#0 1015728523 1228958071 436514739#0 436514739#1 436514739#2 436515355#0 436515355#1 -1235089649 1189761076#2 1235089650 335813776#3 823329197#0 770109403#2 114915928 1018478675#0 1018478675#1 103086818 182824587#0 182824587#1 26701176 777634276 1015754937#0 -1069206897#0" /></flow><flow id="I2731___22_07_00_Right_car" type="car" begin="25200" end="26100" number="2" from="1015757969#0" to="-961036242" /><flow id="I2731_I2629__34_07_00_Left_car" type="car" begin="25200" end="26100" number="1" from="-530438714" to="-1015757969#0" /><flow id="I2731_I2859_inf_36_07_00_Thru_car" type="car" begin="25200" end="26100" number="17" from="-530438714" to="-1069206897#0" /><flow id="I2731_I2859__38_07_00_Right_car" type="car" begin="25200" end="26100" number="2" from="-530438714" to="-1069206897#0" /><flow id="I2731_I2629__52_07_00_Thru_car" type="car" begin="25200" end="26100" number="19" from="1069206897#0" to="-1015757969#0" /><flow id="I2754_I2848__6_07_00_Thru_car" type="car" begin="25200" end="26100" number="6" from="4890801" to="1373259079#1" /><flow id="I2754_I2715__7_07_00_Right_car" type="car" begin="25200" end="26100" number="1" from="4890801" to="-235547876#0" /><flow id="I2754___9_07_00_Left_car" type="car" begin="25200" end="26100" number="1" from="4890801" to="-13061690#0" /><flow id="I2754_I2755__10_07_00_Thru_car" type="car" begin="25200" end="26100" number="8" from="4890801" to="1373259079#1" /><flow id="I2755_I2605__34_07_00_Left_car" type="car" begin="25200" end="26100" number="1" from="4890801" to="-182458340" /><flow id="I2755_I2716__36_07_00_Thru_car" type="car" begin="25200" end="26100" number="12" from="4890801" to="-1255161076#0" /><flow id="I2755_I2849__38_07_00_Right_car" type="car" begin="25200" end="26100" number="3" from="4890801" to="1373259079#1" /><flow id="I2755_I2754__50_07_00_Left_car" type="car" begin="25200" end="26100" number="1" from="-1373259079#1" to="-235547876#0" /><flow id="I2755_I2605__52_07_00_Thru_car" type="car" begin="25200" end="26100" number="1" from="-1373259079#1" to="-182458340" /><flow id="I2814_I2718__2_07_00_Right_car" type="car" begin="25200" end="26100" number="1" from="1069206897#0" to="-1255161076#0" /><flow id="I2814_I2832__4_07_00_Thru_car" type="car" begin="25200" end="26100" number="26" from="1069206897#0" to="-961036242" /><flow id="I2815_I2874__2_07_00_Left_car" type="car" begin="25200" end="26100" number="1" from="1069206897#0" to="-13061690#0" /><flow id="I2815_I2814__4_07_00_Thru_car" type="car" begin="25200" end="26100" number="28" from="1069206897#0" to="1373259079#1" /><flow id="I2815_I2719__6_07_00_Right_car" type="car" begin="25200" end="26100" number="1" from="1069206897#0" to="-13061690#0" /><flow id="I2815_I2843__18_07_00_Left_car" type="car" begin="25200" end="26100" number="1" from="-988781906" to="-1015757969#0" /><flow id="I2815_I2874__20_07_00_Thru_car" type="car" begin="25200" end="26100" number="2" from="-988781906" to="-13061690#0" /><flow id="I2815_I2719__52_07_00_Thru_car" type="car" begin="25200" end="26100" number="2" from="-1373259079#1" to="-13061690#0" /><flow id="I2815_I2843__54_07_00_Right_car" type="car" begin="25200" end="26100" number="1" from="-1373259079#1" to="-1015757969#0" /><flow id="I2832_I2849__4_07_00_Thru_car" type="car" begin="25200" end="26100" number="31" from="1069206897#0" to="1373259079#1" /><flow id="I2832_I2814__54_07_00_Right_car" type="car" begin="25200" end="26100" number="2" from="-1373259079#1" to="1373259079#1" /><flow id="I2836_I2953__2_07_00_Left_car" type="car" begin="25200" end="26100" number="1" from="-988781906" to="-611456680" /><flow id="I2836_I2712_inf_4_07_00_Thru_car" type="car" begin="25200" end="26100" number="9" from="-988781906" to="-182458340" /><flow id="I2836_I2712__6_07_00_Right_car" type="car" begin="25200" end="26100" number="4" from="-988781906" to="-182458340" /><flow id="I2836___18_07_00_Left_car" type="car" begin="25200" end="26100" number="11" from="4890801" to="-1255161076#0" /><flow id="I2836_I2953__20_07_00_Thru_car" type="car" begin="25200" end="26100" number="23" from="4890801" to="-611456680" /><flow id="I2836___22_07_00_Right_car" type="car" begin="25200" end="26100" number="1" from="4890801" to="-1255161076#0" /><flow id="I2836_I2712__52_07_00_Thru_car" type="car" begin="25200" end="26100" number="19" from="611456680" to="-182458340" /><flow id="I2840_I2956__2_07_00_Left_car" type="car" begin="25200" end="26100" number="1" from="-988781906" to="-611456680" /><flow id="I2840_I2715_inf_4_07_00_Thru_car" type="car" begin="25200" end="26100" number="27" from="-988781906" to="-235547876#0" /><flow id="I2840_I2715__52_07_00_Thru_car" type="car" begin="25200" end="26100" number="4" from="4830350" to="-235547876#0" /><flow id="I2843_I2967__20_07_00_Thru_car" type="car" begin="25200" end="26100" number="1" from="-530438714" to="139484443" /><flow id="I2843_I2967__38_07_00_Right_car" type="car" begin="25200" end="26100" number="1" from="-139811056#1" to="139484443" /><flow id="I2843_I2967__59_07_00_Bear_Left_car" type="car" begin="25200" end="26100" number="1" from="-139811056#1" to="139484443" /><flow id="I2843_I2850__61_07_00_Bear_Right_car" type="car" begin="25200" end="26100" number="29" from="-139811056#1" to="-1015757969#0" /><flow id="I2848_I2840__4_07_00_Thru_car" type="car" begin="25200" end="26100" number="27" from="1069206897#0" to="-235547876#0" /><flow id="I2848_I2849__18_07_00_Left_car" type="car" begin="25200" end="26100" number="5" from="-988781906" to="1373259079#1" /><flow id="I2848_I2958__20_07_00_Thru_car" type="car" begin="25200" end="26100" number="7" from="-988781906" to="139811056#1" /><flow id="I2848_I2849__61_07_00_Bear_Right_car" type="car" begin="25200" end="26100" number="4" from="-1373259079#1" to="1373259079#1" /><flow id="I2848_I2754__63_07_00_Hard_Right_car" type="car" begin="25200" end="26100" number="1" from="-1373259079#1" to="-235547876#0" /><flow id="I2849_I2848__4_07_00_Thru_car" type="car" begin="25200" end="26100" number="32" from="1069206897#0" to="1373259079#1" /><flow id="I2849_I2755__6_07_00_Right_car" type="car" begin="25200" end="26100" number="1" from="1069206897#0" to="1373259079#1" /><flow id="I2849_I2832__18_07_00_Left_car" type="car" begin="25200" end="26100" number="1" from="-988781906" to="-961036242" /><flow id="I2849_I2755__52_07_00_Thru_car" type="car" begin="25200" end="26100" number="2" from="-1373259079#1" to="1373259079#1" /><flow id="I2849_I2832__54_07_00_Right_car" type="car" begin="25200" end="26100" number="1" from="-1373259079#1" to="-961036242" /><flow id="I2850_I2968__2_07_00_Left_car" type="car" begin="25200" end="26100" number="2" from="-139811056#1" to="139484443" /><flow id="I2850_I2843__4_07_00_Thru_car" type="car" begin="25200" end="26100" number="28" from="-139811056#1" to="-1015757969#0" /><flow id="I2850_I2728__52_07_00_Thru_car" type="car" begin="25200" end="26100" number="9" from="-1368153905" to="1373259079#1" /><flow id="I2850_I2853__54_07_00_Right_car" type="car" begin="25200" end="26100" number="2" from="-1368153905" to="-1015757969#0" /><flow id="I2853_I2850__4_07_00_Thru_car" type="car" begin="25200" end="26100" number="27" from="-139811056#1" to="-1015757969#0" /><flow id="I2853_I2727__6_07_00_Right_car" type="car" begin="25200" end="26100" number="6" from="-139811056#1" to="-13061690#0" /><flow id="I2853___18_07_00_Left_car" type="car" begin="25200" end="26100" number="1" from="1015757969#0" to="139811056#1" /><flow id="I2853_I2970__20_07_00_Thru_car" type="car" begin="25200" end="26100" number="9" from="1015757969#0" to="-1015757969#0" /><flow id="I2853_I2970__20_07_00_Thru_bus" type="bus" begin="25200" end="26100" number="1"><route edges="1015757969#0 1026983480#1 1015756825#0 777634273#1 1015754936#0 139810524#1 1015753884 103086816#0 103086816#1 1018478676#0 1018478676#1 -1018478675#1 -1018478675#0 -114915928 -770109403#2 -1056138896#0 -436515354 -1056138897#1 -571961656#0 571961655#0 571961655#1 571961655#2 -436514739#2 -436514739#1 -436514739#0 -1228958071 -1015728523 -369800173#0 392044395 369800174 508372189 508372186 369800173#0 1015728523 1228958071 436514739#0 436514739#1 436514739#2 436515355#0 436515355#1 -1235089649 1189761076#2 1235089650 335813776#3 823329197#0 770109403#2 114915928 1018478675#0 1018478675#1 103086818 182824587#0 182824587#1 26701176 777634276 1015754937#0 114501102#1 1015756826#0 777634272#1 1015757971#0 1015757971#1 -1015757969#0" /></flow><flow id="I2859_I2976__2_07_00_Left_car" type="car" begin="25200" end="26100" number="2" from="-139811056#1" to="139484443" /><flow id="I2859_I2976_inf_4_07_00_Thru_car" type="car" begin="25200" end="26100" number="12" from="-139811056#1" to="139484443" /><flow id="I2859_I2731__6_07_00_Right_car" type="car" begin="25200" end="26100" number="9" from="-139811056#1" to="139811056#1" /><flow id="I2859_I2976__20_07_00_Thru_car" type="car" begin="25200" end="26100" number="48" from="1069206897#0" to="139484443" /><flow id="I2859_I2731__34_07_00_Left_car" type="car" begin="25200" end="26100" number="4" from="1069206897#0" to="139811056#1" /><flow id="I2859_I2731__52_07_00_Thru_car" type="car" begin="25200" end="26100" number="27" from="-821111101" to="139811056#1" /><flow id="I2859_I2731__52_07_00_Thru_bus" type="bus" begin="25200" end="26100" number="1"><route edges="-821111101 597576944#1 829392052 1018636800#0 1248691231#2 902156801#1 902156786#1 26600479#0 335813776#3 823329197#0 -1056138896#0 -436515354 -1056138897#1 -571961656#0 571961655#0 571961655#1 571961655#2 -436514739#2 -436514739#1 -436514739#0 -1228958071 -1015728523 -369800173#0 392044395 369800174 508372189 508372186 369800173#0 1015728523 1228958071 436514739#0 436514739#1 436514739#2 436515355#0 436515355#1 -1235089649 1189761076#2 1235089650 335813776#3 823329197#0 770109403#2 114915928 1018478675#0 1018478675#1 103086818 182824587#0 182824587#1 139811056#1" /></flow><flow id="I2874_I2963__20_07_00_Thru_car" type="car" begin="25200" end="26100" number="4" from="-988781906" to="-13061690#0" /><flow id="I2874_I2843__22_07_00_Left_car" type="car" begin="25200" end="26100" number="1" from="-988781906" to="-1015757969#0" /><flow id="I2874_I2815__52_07_00_Thru_car" type="car" begin="25200" end="26100" number="1" from="-1373259079#1" to="-13061690#0" /><flow id="I2906_I2959__20_07_00_Thru_car" type="car" begin="25200" end="26100" number="1" from="-988781906" to="-13061690#0" /><flow id="I2906_I2849__52_07_00_Thru_car" type="car" begin="25200" end="26100" number="1" from="-1373259079#1" to="1373259079#1" /><flow id="I2953_I3043__2_07_00_Left_car" type="car" begin="25200" end="26100" number="1" from="-988781906" to="-235547876#0" /><flow id="I2953_I2836__6_07_00_Right_car" type="car" begin="25200" end="26100" number="1" from="-988781906" to="-611456680" /><flow id="I2953___18_07_00_Left_car" type="car" begin="25200" end="26100" number="3" from="4890801" to="-1255161076#0" /><flow id="I2953_I3043__20_07_00_Thru_car" type="car" begin="25200" end="26100" number="33" from="4890801" to="-235547876#0" /><flow id="I2953___22_07_00_Right_car" type="car" begin="25200" end="26100" number="1" from="4890801" to="-1255161076#0" /><flow id="I2953_I2836__34_07_00_Left_car" type="car" begin="25200" end="26100" number="1" from="611456680" to="-611456680" /><flow id="I2953_I2836_inf_36_07_00_Thru_car" type="car" begin="25200" end="26100" number="1" from="611456680" to="-611456680" /><flow id="I2953_I2836__52_07_00_Thru_car" type="car" begin="25200" end="26100" number="18" from="611456680" to="-611456680" /><flow id="I2956___2_07_00_Left_car" type="car" begin="25200" end="26100" number="1" from="-988781906" to="-1292241130#0" /><flow id="I2956_I2840_inf_4_07_00_Thru_car" type="car" begin="25200" end="26100" number="5" from="-988781906" to="-235547876#0" /><flow id="I2956_I2957__36_07_00_Thru_car" type="car" begin="25200" end="26100" number="2" from="611456680" to="139811056#1" /><flow id="I2956___50_07_00_Left_car" type="car" begin="25200" end="26100" number="1" from="235547876#0" to="-1255161076#0" /><flow id="I2956_I2840__52_07_00_Thru_car" type="car" begin="25200" end="26100" number="5" from="235547876#0" to="-235547876#0" /><flow id="I2956_I2957__54_07_00_Right_car" type="car" begin="25200" end="26100" number="1" from="235547876#0" to="139811056#1" /><flow id="I2957_I2956__4_07_00_Thru_car" type="car" begin="25200" end="26100" number="2" from="-988781906" to="-611456680" /><flow id="I2957___6_07_00_Left_car" type="car" begin="25200" end="26100" number="1" from="-988781906" to="-13061690#0" /><flow id="I2957_I2958__36_07_00_Thru_car" type="car" begin="25200" end="26100" number="2" from="611456680" to="139811056#1" /><flow id="I2958_I2957__4_07_00_Thru_car" type="car" begin="25200" end="26100" number="2" from="-988781906" to="139811056#1" /><flow id="I2958_I2848__6_07_00_Right_car" type="car" begin="25200" end="26100" number="1" from="-988781906" to="1373259079#1" /><flow id="I2958_I3093__20_07_00_Thru_car" type="car" begin="25200" end="26100" number="9" from="-988781906" to="-23235415#0" /><flow id="I2958_I2957__22_07_00_Right_car" type="car" begin="25200" end="26100" number="1" from="-988781906" to="139811056#1" /><flow id="I2958_I2959__36_07_00_Thru_car" type="car" begin="25200" end="26100" number="2" from="611456680" to="-13061690#0" /><flow id="I2959_I2958__4_07_00_Thru_car" type="car" begin="25200" end="26100" number="2" from="-988781906" to="139811056#1" /><flow id="I2959_I3063__6_07_00_Left_car" type="car" begin="25200" end="26100" number="1" from="-988781906" to="-13061690#0" /><flow id="I2959_I2961__36_07_00_Thru_car" type="car" begin="25200" end="26100" number="2" from="611456680" to="139811056#1" /><flow id="I2959_I2906__52_07_00_Thru_car" type="car" begin="25200" end="26100" number="1" from="-1373259079#1" to="1373259079#1" /><flow id="I2959_I2958__54_07_00_Left_car" type="car" begin="25200" end="26100" number="1" from="-1373259079#1" to="139811056#1" /><flow id="I2961_I2959__4_07_00_Thru_car" type="car" begin="25200" end="26100" number="2" from="1069206897#0" to="-13061690#0" /><flow id="I2961_I2963__36_07_00_Thru_car" type="car" begin="25200" end="26100" number="2" from="611456680" to="-13061690#0" /><flow id="I2963_I2966_inf_20_07_00_Thru_car" type="car" begin="25200" end="26100" number="2" from="-988781906" to="-611456680" /><flow id="I2963_I2966__22_07_00_Left_car" type="car" begin="25200" end="26100" number="1" from="-988781906" to="-611456680" /><flow id="I2963_I2966__36_07_00_Thru_car" type="car" begin="25200" end="26100" number="2" from="611456680" to="-611456680" /><flow id="I2963_I2874__52_07_00_Thru_car" type="car" begin="25200" end="26100" number="2" from="-1373259079#1" to="-13061690#0" /><flow id="I2963_I2961__54_07_00_Left_car" type="car" begin="25200" end="26100" number="1" from="-1373259079#1" to="139811056#1" /><flow id="I2966_I2963__4_07_00_Thru_car" type="car" begin="25200" end="26100" number="2" from="-139811056#1" to="-13061690#0" /><flow id="I2966_I2967__36_07_00_Thru_car" type="car" begin="25200" end="26100" number="4" from="611456680" to="139484443" /><flow id="I2967_I2966__4_07_00_Thru_car" type="car" begin="25200" end="26100" number="2" from="-139811056#1" to="-611456680" /><flow id="I2967_I2968__22_07_00_Left_car" type="car" begin="25200" end="26100" number="1" from="-530438714" to="139484443" /><flow id="I2967_I2968__36_07_00_Thru_car" type="car" begin="25200" end="26100" number="3" from="611456680" to="139484443" /><flow id="I2967_I2843__38_07_00_Left_car" type="car" begin="25200" end="26100" number="1" from="611456680" to="-1015757969#0" /><flow id="I2968_I3104__2_07_00_Left_car" type="car" begin="25200" end="26100" number="1" from="-139811056#1" to="139484443" /><flow id="I2968_I2967__4_07_00_Thru_car" type="car" begin="25200" end="26100" number="2" from="-139811056#1" to="139484443" /><flow id="I2968_I2970__36_07_00_Thru_car" type="car" begin="25200" end="26100" number="3" from="611456680" to="-1015757969#0" /><flow id="I2968_I3104__38_07_00_Right_car" type="car" begin="25200" end="26100" number="1" from="611456680" to="139484443" /><flow id="I