<?xml version='1.0' encoding='UTF-8'?>
<routes>
    <vType id="bus" vClass="bus" color="0,122,135" />
    <route id="R_80_Parkland_Lincoln_1594411" edges="902156801#1 902156786#1 26600479#0 335813776#3 823329197#0 -1056138896#0 -436515354 -1056138897#1 -571961656#0 571961655#0 571961655#1 571961655#2 -436514739#2 -436514739#1 -436514739#0 -1228958071 -1015728523 -777634281 -392044388#2 -392044388#1 114648656#1 1015728524 1015728525#0 993201434#1 369800170#0 369800170#1 508372189 508372186 369800173#0 1015728523 1228958071 436514739#0 436514739#1 436514739#2 436515355#0 436515355#1 987155151 1056154549 1056138897#1 436515354 1056138896#0 646364260#1 1015751047 1015751048#0 -700830261#0 -1280080859 993201434#1 993201433#1 392044390#0 1056138897#1 436515354 1056138896#0 646364260#1 1015751047 1015751048#0 822357566#1 464000308#1 1015728530#0 1015728531#1 1015728534#0" />
    <route id="R_3_Sumner_NTA_1594416" edges="902156784#1 821114319#1 194715884#0 821114320 1018471572 828933465 384497886#1 597576899#1 777209675#1 1311909671#2 1056154547#0 384497887#1 1056154546#0 1382213596#1 902156786#1 26600479#0 335813776#3 823329197#0 646364260#1 1015751047 1015751048#0 -700830261#0 -1280080859 993201434#1 993201433#1 392044390#0 -571961656#0 571961655#0 571961655#1 571961655#2 -436514739#2 -436514739#1 -436514739#0 -1228958071 -1015728523 -777634281 -392044388#2 -392044388#1 114648656#1 1015728524 1015728525#0 993201434#1 993201433#1 392044390#0 1056138897#1 436515354 1056138896#0 646364260#1 1015751047 1015751048#0 822357566#1 464000308#1 1015728530#0 1015728531#1 1015728534#0 1015728533#1 1015728532 114915930 337504003#0 777634282#1 479999311#0 23151049#1" />
    <route id="R_7_Queenspark_Halswell_1597633" edges="-993555375#2 -993555376#0 -651950549#0 406753471 41655467#2 41655467#5 1056154552#0 1056154553#1 436513712#1 1056154554#0 1056154554#1 993555375#2 1409575693#0 1409575693#1 993555374#0 830501798#1 830501798#2 683819894#0 1395896891#1 987155148#1 1395896894#0 1395896894#1 1395896894#2 -436514739#2 -436514739#1 -436514739#0 -1228958071 -1015728523 -369800173#0 392044395 508372184 392044390#0 -571961656#0 571961655#0 571961655#1 571961655#2 1383339034 987155155 830501797#0 683819893#1 -683819894#0 -830501798#2 -830501798#1 -993555374#0 -436514740 -1409575693#0 -993555375#2 -993555376#0 -651950549#0 406753471 41655467#2 41655467#5 1056154552#0 1056154553#1 436513712#1 1056154554#0 1056154554#1 993555375#2 1409575693#0 1409575693#1 993555374#0 830501798#1 830501798#2 683819894#0 1395896891#1 987155148#1 1395896894#0 1395896894#1 1395896894#2 -436514739#2 -436514739#1 -436514739#0 -1228958071 -1015728523 -369800173#0 392044395 369800174 508372189 506014262 508372184 392044390#0 1056138897#1 436515354 1056138896#0 646364260#1 1015751047 1015751048#0 822357566#1 464000308#1 1015728530#0 1015728531#1 1015728534#0" />
    <route id="R_1_1598996" edges="-597576896#0 -807003661 -1467186698 -464000309 -700830261#0 -1280080859 993201434#1 369800170#0 369800170#1 508372189 508372186 369800173#0 1015728523 1228958071 436514739#0 436514739#1 436514739#2 1383339034 987155155 830501797#0 683819893#1 -683819894#0 -830501798#2 -830501798#1 -993555374#0 -436514740 -1409575693#0 -993555375#2 -993555376#0 -651950549#0 -529843972 -124842990#1 463039420#0 392044386#1 392044386#2 337505266#1 337282272#0" />
    <route id="R_95_Waikuku_Christchurch_1598997" edges="139807681#1 337504041#1 139807680#1 -406753472#2 -406753472#1 392044386#1 392044386#2 114502608#1 41655467#2 41655467#5 1056154552#0 1056154553#1 436513712#1 1056154554#0 1056154554#1 993555375#2 1409575693#0 1409575693#1 993555374#0 830501798#1 830501798#2 683819894#0 1395896891#1 987155148#1 1395896894#0 1395896894#1 1395896894#2 -436514739#2 -436514739#1 -436514739#0 -1228958071 -1015728523 -369800173#0 392044395 508372184 392044390#0 -571961656#0 571961655#0 571961655#1 571961655#2 1383339034 987155155 830501797#0 683819893#1 -683819894#0 -830501798#2 -830501798#1 -993555374#0 -436514740 -1409575693#0 -993555375#2 -993555376#0 -651950549#0 406753471 41655467#2 41655467#5 1056154552#0 1056154553#1 436513712#1 1056154554#0 1056154554#1 993555375#2 1409575693#0 1409575693#1 993555374#0 830501798#1 830501798#2 683819894#0 1395896891#1 987155148#1 1395896894#0 1395896894#1 1395896894#2 -436514739#2 -436514739#1 -436514739#0 -1228958071 -1015728523 -369800173#0 392044395 369800174 508372189 506014262 508372184 392044390#0 114914209#1 114914219 1189761076#2 194715885 384497887#1 1056154546#0 1382213596#1 902156784#1" />
    <route id="R_44_Shirley_Westmorland_1612575" edges="114770261 902156794#1 -392044387#1 -406753472#2 -406753472#1 392044386#1 392044386#2 114502608#1 41655467#2 41655467#5 1056154552#0 1056154553#1 436513712#1 1056154554#0 1056154554#1 993555375#2 1409575693#0 1409575693#1 993555374#0 830501798#1 830501798#2 683819894#0 1395896891#1 987155148#1 1395896894#0 1395896894#1 1395896894#2 -436514739#2 -436514739#1 -436514739#0 -1228958071 -1015728523 -369800173#0 392044395 508372184 392044390#0 -571961656#0 571961655#0 571961655#1 571961655#2 1383339034 987155155 830501797#0 683819893#1 -683819894#0 -830501798#2 -830501798#1 -993555374#0 -436514740 -1409575693#0 -993555375#2 -993555376#0 -651950549#0 406753471 41655467#2 41655467#5 1056154552#0 1056154553#1 436513712#1 1056154554#0 1056154554#1 993555375#2 1409575693#0 1409575693#1 993555374#0 830501798#1 830501798#2 683819894#0 1395896891#1 987155148#1 1395896894#0 1395896894#1 1395896894#2 -436514739#2 -436514739#1 -436514739#0 -1228958071 -1015728523 -369800173#0 392044395 369800174 508372189 506014262 508372184 392044390#0 1056138897#1 436515354 1056138896#0 646364260#1 1015751047 1015751048#0 1238158274#1 701030406 807003661 597576896#0 597576896#1 597576896#2 139484443 -114648686#1" />
    <route id="R_60_Southshore_Hillmorton_1625359" edges="344479221#0 344479221#1 344479221#2 344479221#3 344479221#4 -479999311#0 -1447308649 -194730197#3 -194730197#0 1467161237 597569351#0 1015757970#1" />
    <route id="R_140_Russley_Mount_Pleasant_4290280" edges="1026983480#1 1015756825#0 777634273#1 1015754936#0 139810524#1 1015753884 4894859#0 4894859#1 1018480659 114501104#1 1018478676#0 1018478676#1 103086813#0 103086813#1 103086813#2 1018471571 828933467#0 597576903 1018469846 902156787 821111102 531164117#0 821111101" />
    <route id="R_5_New_Brighton_Rolleston_6683657" edges="-993555375#2 -993555376#0 -651950549#0 406753471 41655467#2 41655467#5 1056154552#0 1056154553#1 436513712#1 1056154554#0 1056154554#1 993555375#2 1409575693#0 1409575693#1 993555374#0 830501798#1 830501798#2 683819894#0 1395896891#1 987155148#1 1395896894#0 1395896894#1 1395896894#2 -436514739#2 -436514739#1 -436514739#0 -1228958071 -1015728523 -369800173#0 392044395 508372184 392044390#0 -571961656#0 571961655#0 571961655#1 571961655#2 1383339034 987155155 830501797#0 683819893#1 -683819894#0 -830501798#2 -830501798#1 -993555374#0 -436514740 -1409575693#0 -993555375#2 -993555376#0 -651950549#0 406753471 41655467#2 41655467#5 1056154552#0 1056154553#1 436513712#1 1056154554#0 1056154554#1 993555375#2 1409575693#0 1409575693#1 993555374#0 830501798#1 830501798#2 683819894#0 1395896891#1 987155148#1 1395896894#0 1395896894#1 1395896894#2 -436514739#2 -436514739#1 -436514739#0 -1228958071 -1015728523 -369800173#0 392044395 369800174 508372189 506014262 508372184 392044390#0 1056138897#1 436515354 1056138896#0 646364260#1 1015751047 1015751048#0 822357566#1 464000308#1 1015728530#0 1015728531#1 1015728534#0" />
    <route id="R_7_Halswell_Queenspark_6685940" edges="-597569351#0 -15800235 194730197#0 194730197#3 777634282#1 479999311#0 23151049#1 984247262#2 1015728528#0 32841811#1 981884343#0 657468210#1 1015728526#0 993201434#1 369800170#0 369800170#1 508372189 508372186 369800173#0 1015728523 1228958071 436514739#0 436514739#1 436514739#2 1383339034 987155155 830501797#0 683819893#1 -683819894#0 -830501798#2 -830501798#1 -993555374#0 -436514740 -1409575693#0 -993555375#2" />
    <route id="R_3_Sumner_Christchurch_Aiport_7527791" edges="26600479#0 335813776#3 823329197#0 -1056138896#0 -436515354 -1056138897#1 -571961656#0 571961655#0 571961655#1 571961655#2 -436514739#2 -436514739#1 -436514739#0 -1228958071 -1015728523 -777634281 -392044388#2 -392044388#1 114648656#1 1015728524 1015728525#0 993201434#1 993201433#1 392044390#0 1056138897#1 436515354 1056138896#0 646364260#1 1015751047 1015751048#0 822357566#1 464000308#1 1015728530#0 1015728531#1 1015728534#0" />
    <route id="R_60_Hillmorton_Southshore_12554852" edges="-1015757970#1 -597569351#0 -15800235 194730197#0 194730197#3 777634282#1 479999311#0 23151049#1 984247262#2 1015728528#0 32841811#1 981884343#0 657468210#1 1015728526#0 993201434#1 369800170#0 369800170#1 508372189 508372186 369800173#0 1015728523 1228958071 436514739#0 436514739#1 436514739#2 1383339034 987155155 830501797#0 683819893#1" />
    <route id="R_29_City_Airport_12817159" edges="-1015728523 -369800173#0 392044395 369800174 508372189 508372186 369800173#0 1015728523 1228958071 436514739#0 436514739#1 436514739#2 1383339034 987155155 830501797#0 683819893#1 -683819894#0 -830501798#2 -830501798#1 -993555374#0 -436514740 -1409575693#0 -993555375#2 -993555376#0 -651950549#0 -529843972 -124842990#1 463039420#0 392044386#1 392044386#2 337505266#1 337282272#0" />
    <route id="R_1_Rangiora_Cashmere_12835307" edges="139807681#1 337504041#1 139807680#1 -406753472#2 -406753472#1 392044386#1 392044386#2 114502608#1 41655467#2 41655467#5 1056154552#0 1056154553#1 436513712#1 1056154554#0 1056154554#1 993555375#2 1409575693#0 1409575693#1 993555374#0 830501798#1 830501798#2 683819894#0 1395896891#1 987155148#1 1395896894#0 1395896894#1 1395896894#2 -436514739#2 -436514739#1 -436514739#0 -1228958071 -1015728523 -369800173#0 392044395 508372184 392044390#0 -571961656#0 571961655#0 571961655#1 571961655#2 1383339034 987155155 830501797#0 683819893#1 -683819894#0 -830501798#2 -830501798#1 -993555374#0 -436514740 -1409575693#0 -993555375#2 -993555376#0 -651950549#0 406753471 41655467#2 41655467#5 1056154552#0 1056154553#1 436513712#1 1056154554#0 1056154554#1 993555375#2 1409575693#0 1409575693#1 993555374#0 830501798#1 830501798#2 683819894#0 1395896891#1 987155148#1 1395896894#0 1395896894#1 1395896894#2 -436514739#2 -436514739#1 -436514739#0 -1228958071 -1015728523 -369800173#0 392044395 369800174 508372189 506014262 508372184 392044390#0 1056138897#1 436515354 1056138896#0 646364260#1 1015751047 1015751048#0 1238158274#1 701030406 807003661 597576896#0 597576896#1 597576896#2 139484443 -114648686#1" />
    <route id="R_3_Sheffield_Crescent_Sumner_13332727" edges="23151049#1 984247262#2 1015728528#0 32841811#1 981884343#0 657468210#1 1015728526#0 993201434#1 993201433#1 392044390#0 -571961656#0 571961655#0 571961655#1 571961655#2 -436514739#2 -436514739#1 -436514739#0 -1228958071 -1015728523 -777634281 -392044388#2 -392044388#1 114648656#1 1015728524 1015728525#0 993201434#1 993201433#1 392044390#0 114914209#1 114914219 1189761076#2 194715885 384497887#1 1056154546#0 1382213596#1 902156784#1" />
    <route id="R_3_Sumner_Sheffield_Crescent_13332728" edges="26600479#0 335813776#3 823329197#0 -1056138896#0 -436515354 -1056138897#1 -571961656#0 571961655#0 571961655#1 571961655#2 -436514739#2 -436514739#1 -436514739#0 -1228958071 -1015728523 -777634281 -392044388#2 -392044388#1 114648656#1 1015728524 1015728525#0 993201434#1 993201433#1 392044390#0 1056138897#1 436515354 1056138896#0 646364260#1 1015751047 1015751048#0 822357566#1 464000308#1 1015728530#0 1015728531#1 1015728534#0" />
    <route id="R_44_Westmorland_Shirley_13334642" edges="-597576896#0 -807003661 -1467186698 -464000309 -700830261#0 -1280080859 993201434#1 369800170#0 369800170#1 508372189 508372186 369800173#0 1015728523 1228958071 436514739#0 436514739#1 436514739#2 1383339034 987155155 830501797#0 683819893#1 -683819894#0 -830501798#2 -830501798#1 -993555374#0 -436514740 -1409575693#0 -993555375#2 -993555376#0 -651950549#0 -529843972 -124842990#1 463039420#0 406753472#1 406753472#2 392044387#1 829840447#1 902156793#1 -235547876#0" />
    <route id="R_95_Christchurch_Waikuku_13794090" edges="26600479#0 335813776#3 823329197#0 646364260#1 1015751047 1015751048#0 -700830261#0 -1280080859 993201434#1 369800170#0 369800170#1 508372189 508372186 369800173#0 1015728523 1228958071 436514739#0 436514739#1 436514739#2 1383339034 987155155 830501797#0 683819893#1 -683819894#0 -830501798#2 -830501798#1 -993555374#0 -436514740 -1409575693#0 -993555375#2 -993555376#0 -651950549#0 -529843972 -124842990#1 463039420#0 392044386#1 392044386#2 337505266#1 337282272#0" />
    <route id="R_5_Rolleston_New_Brighton_13803257" edges="23151049#1 984247262#2 1015728528#0 32841811#1 981884343#0 657468210#1 1015728526#0 993201434#1 369800170#0 369800170#1 508372189 508372186 369800173#0 1015728523 1228958071 436514739#0 436514739#1 436514739#2 1383339034 987155155 830501797#0 683819893#1 -683819894#0 -830501798#2 -830501798#1 -993555374#0 -436514740 -1409575693#0 -993555375#2" />
    <route id="R_80_Lincoln_Parklands_13809322" edges="23151049#1 984247262#2 1015728528#0 32841811#1 981884343#0 657468210#1 1015728526#0 993201434#1 993201433#1 392044390#0 -571961656#0 571961655#0 571961655#1 571961655#2 -436514739#2 -436514739#1 -436514739#0 -1228958071 -1015728523 -777634281 -392044388#2 -392044388#1 114648656#1 1015728524 1015728525#0 993201434#1 369800170#0 369800170#1 508372189 506014262 508372184 392044390#0 1056138897#1 436515354 1056138896#0 646364260#1 1015751047 1015751048#0 -700830261#0 -1280080859 993201434#1 993201433#1 392044390#0 114914209#1 114914219 1189761076#2 194715885 384497887#1 1056154546#0 194716060#1 1368153906#0 4891423" />
    <route id="R_140_Mount_Pleasant_Russley_13871329" edges="-821111101 597576953#1 597576948 813293047 821114320 1018471572 828933465 597576921#1 1018478677 597576915#0 597576915#1 4894860 1018480661 114501127#1 182824587#0 182824587#1 26701176 777634276 1015754937#0 114501102#1 1015756826#0 777634272#1 1015757971#0" />
    <route id="R_92_Kaiapoi_City_16272293" edges="344479221#0 344479221#1 344479221#2 344479221#3 344479221#4 23151049#1 984247262#2 1015728528#0 32841811#1 981884343#0 657468210#1 1015728526#0 993201434#1 993201433#1 392044390#0 -571961656#0 571961655#0 571961655#1 571961655#2 1383339034 987155155 830501797#0 683819893#1 -683819894#0 -830501798#2 -830501798#1 -993555374#0 -436514740 -1409575693#0 -993555375#2 -993555376#0 -651950549#0 -529843972 -124842990#1 463039420#0 406753472#1 406753472#2 392044387#1 896891141#1 -611456680" />
    <route id="R_81_City_Lincoln_16272294" edges="-597569351#0 -15800235 194730197#0 194730197#3 777634282#1 479999311#0 23151049#1 984247262#2 1015728528#0 32841811#1 981884343#0 657468210#1 1015728526#0 993201434#1 369800170#0 369800170#1 508372189 508372186 369800173#0 1015728523 1228958071 436514739#0 436514739#1 436514739#2 436515355#0 436515355#1 987155151 1056154549 1056138897#1 436515354 1056138896#0 646364260#1 1015751047 1015751048#0 -700830261#0 -1280080859 993201434#1 993201433#1 392044390#0 114914209#1 114914219 1189761076#2 194715885 384497887#1 1056154546#0 1382213596#1 902156784#1" />
    <route id="R_86_Christchurch_Darfield_16272295" edges="-1409575693#0 -993555375#2 -993555376#0 -651950549#0 406753471 41655467#2 41655467#5 1056154552#0 1056154553#1 436513712#1 1056154554#0 1056154554#1 993555375#2 1409575693#0 1409575693#1 993555374#0 830501798#1 830501798#2 683819894#0 1395896891#1 987155148#1 1395896894#0 1395896894#1 1395896894#2 -436514739#2 -436514739#1 -436514739#0 -1228958071 -1015728523 -369800173#0 392044395 369800174 508372189 506014262 508372184 392044390#0 1056138897#1 436515354 1056138896#0 646364260#1 1015751047 1015751048#0 822357566#1 464000308#1 1015728530#0 1015728531#1 1015728534#0" />
    <route id="R_86_Darfield_Christchurch_16784847" edges="23151049#1 984247262#2 1015728528#0 32841811#1 981884343#0 657468210#1 1015728526#0 993201434#1 369800170#0 369800170#1 508372189 508372186 369800173#0 1015728523 1228958071 436514739#0 436514739#1 436514739#2 1383339034 987155155 830501797#0 683819893#1 -683819894#0 -830501798#2 -830501798#1 -993555374#0" />
    <route id="R_91_Rangiora_City_17027253" edges="1015728534#0 1015728533#1 1015728532 114915930 337504003#0 777634282#1 479999311#0 23151049#1 984247262#2 1015728528#0 32841811#1 981884343#0 657468210#1 1015728526#0 993201434#1 993201433#1 392044390#0 -571961656#0 571961655#0 571961655#1 571961655#2 -436514739#2 -436514739#1 -436514739#0 -1228958071 -1015728523 -777634281 -392044388#2 -392044388#1 114648656#1 1015728524 1015728525#0 993201434#1 369800170#0 369800170#1 508372189 508372186 369800173#0 1015728523 1228958071 436514739#0 436514739#1 436514739#2 436515355#0 436515355#1 987155151 1056154549 1056138897#1 436515354 1056138896#0 646364260#1 1015751047 1015751048#0 -700830261#0 -1280080859 993201434#1 993201433#1 392044390#0 -571961656#0 571961655#0 571961655#1 571961655#2 1383339034 987155155 830501797#0 683819893#1 -683819894#0 -830501798#2 -830501798#1 -993555374#0 -436514740 -1409575693#0 -993555375#2 -993555376#0 -651950549#0 406753471 -41655467#0 -116419807#2 -116419807#1 139807680#1 -406753472#2 -406753472#1 392044386#1 392044386#2 114502608#1 41655467#2 41655467#5 1056154552#0 1056154553#1 436513712#1 1056154554#0 1056154554#1 -993555376#0 -651950549#0 -529843972 -124842990#1 463039420#0 406753472#1 406753472#2 392044387#1 -1292241130#0" />
    <route id="R_91_City_Rangiora_17027254" edges="23151049#1 984247262#2 1015728528#0 32841811#1 981884343#0 657468210#1 1015728526#0 993201434#1 369800170#0 369800170#1 508372189 508372186 369800173#0 1015728523 1228958071 436514739#0 436514739#1 436514739#2 1383339034 987155155 830501797#0 683819893#1 -683819894#0 -830501798#2 -830501798#1 -993555374#0 -436514740 -1409575693#0 -993555375#2 -993555376#0 -651950549#0 406753471 -41655467#0 -116419807#2 -116419807#1 139807680#1 -406753472#2 -406753472#1 -463039420#0 124842990#1 124842990#2 651950549#0 494827032#2 993555375#2 1409575693#0 1409575693#1 993555374#0 830501798#1 830501798#2 683819894#0 1395896891#1 987155148#1 1395896894#0 1395896894#1 1395896894#2 -436514739#2 -436514739#1 -436514739#0 -1228958071 -1015728523 -777634281 -392044388#2 -392044388#1 114648656#1 1015728524 1015728525#0 993201434#1 369800170#0 369800170#1 508372189 508372186 369800173#0 1015728523 1228958071 436514739#0 436514739#1 436514739#2 1383339034 987155155 830501797#0 683819893#1 -683819894#0 -830501798#2 -830501798#1 -993555374#0 -436514740 -1409575693#0 -993555375#2 -993555376#0 -651950549#0 -529843972 -124842990#1 463039420#0 392044386#1 392044386#2 114502608#1 41655467#2 41655467#5 1056154552#0 1056154553#1 436513712#1 1056154554#0 1056154554#1 993555375#2 1409575693#0 1409575693#1 993555374#0 830501798#1 830501798#2 683819894#0 1395896891#1 987155148#1 1395896894#0 1395896894#1 1395896894#2 -436514739#2 -436514739#1 -436514739#0 -1228958071 -1015728523 -369800173#0 392044395 369800174 508372189 508372186 369800173#0 1015728523 1228958071 436514739#0 436514739#1 436514739#2 1383339034 987155155 830501797#0 683819893#1 -683819894#0 -830501798#2 -830501798#1 -993555374#0 -436514740 -1409575693#0 -993555375#2 -993555376#0 -651950549#0 -529843972 -124842990#1 463039420#0 406753472#1 406753472#2 392044392#1 26600510#1 -902156795#0" />
    <route id="R_27_Northwood_Huntsbury_17984922" edges="1356531822#1 139807680#1 -406753472#2 -406753472#1 392044386#1 392044386#2 114502608#1 41655467#2 41655467#5 1056154552#0 1056154553#1 436513712#1 1056154554#0 1056154554#1 993555375#2 1409575693#0 1409575693#1 993555374#0 830501798#1 830501798#2 683819894#0 1395896891#1 987155148#1 1395896894#0 1395896894#1 1395896894#2 -436514739#2 -436514739#1 -436514739#0 -1228958071 -1015728523 -369800173#0 392044395 508372184 392044390#0 -571961656#0 571961655#0 571961655#1 571961655#2 1383339034 987155155 830501797#0 683819893#1 -683819894#0 -830501798#2 -830501798#1 -993555374#0 -436514740 -1409575693#0 -993555375#2 -993555376#0 -651950549#0 406753471 41655467#2 41655467#5 1056154552#0 1056154553#1 436513712#1 1056154554#0 1056154554#1 993555375#2 1409575693#0 1409575693#1 993555374#0 830501798#1 830501798#2 683819894#0 1395896891#1 987155148#1 1395896894#0 1395896894#1 1395896894#2 -436514739#2 -436514739#1 -436514739#0 -1228958071 -1015728523 -369800173#0 392044395 369800174 508372189 506014262 508372184 392044390#0 1056138897#1 436515354 1056138896#0 770109403#2 114915928 1018478675#0 1018478675#1 103086813#0 103086813#1 103086813#2 1018471571 828933467#0 597576903 1018469846 231160340#1 337257205" />
    <route id="R_27_Huntsbury_Northwood_17984923" edges="1356531822#1 139807680#1 -406753472#2 -406753472#1 392044386#1 392044386#2 114502608#1 41655467#2 41655467#5 1056154552#0 1056154553#1 436513712#1 1056154554#0 1056154554#1 993555375#2 1409575693#0 1409575693#1 993555374#0 830501798#1 830501798#2 683819894#0 1395896891#1 987155148#1 1395896894#0 1395896894#1 1395896894#2 -436514739#2 -436514739#1 -436514739#0 -1228958071 -1015728523 -369800173#0 392044395 508372184 392044390#0 -571961656#0 571961655#0 571961655#1 571961655#2 1383339034 987155155 830501797#0 683819893#1 -683819894#0 -830501798#2 -830501798#1 -993555374#0 -436514740 -1409575693#0 -993555375#2 -993555376#0 -651950549#0 406753471 41655467#2 41655467#5 1056154552#0 1056154553#1 436513712#1 1056154554#0 1056154554#1 993555375#2 1409575693#0 1409575693#1 993555374#0 830501798#1 830501798#2 683819894#0 1395896891#1 987155148#1 1395896894#0 1395896894#1 1395896894#2 -436514739#2 -436514739#1 -436514739#0 -1228958071 -1015728523 -369800173#0 392044395 508372184 392044390#0 -571961656#0 571961655#0 571961655#1 571961655#2 1383339034 987155155 830501797#0 683819893#1 -683819894#0 -830501798#2 -830501798#1 -993555374#0 -436514740 -1409575693#0 -993555375#2 -993555376#0 -651950549#0 406753471 -41655467#0 -116419807#2 -116419807#1 139807680#1 392044392#1 1239775828#1 337266560 101843352 1509673110 337282273#1 337282273#2 337282273#5 902156780#1 1056154540#0 1056154541#1 139633217#1 139633217#4 139633217#7 1382213596#1 902156786#1 26600479#0 335813776#3 823329197#0 -1056138896#0 -436515354 -1056138897#1 -571961656#0 571961655#0 571961655#1 571961655#2 1383339034 987155155 830501797#0 683819893#1 -683819894#0 -830501798#2 -830501798#1 -993555374#0 -436514740 -1409575693#0 -993555375#2 -993555376#0 -651950549#0 406753471 41655467#2 41655467#5 1056154552#0 1056154553#1 436513712#1 1056154554#0 1056154554#1 993555375#2 1409575693#0 1409575693#1 993555374#0 830501798#1 830501798#2 683819894#0 1395896891#1 987155148#1 1395896894#0 1395896894#1 1395896894#2 -436514739#2 -436514739#1 -436514739#0 -1228958071 -1015728523 -369800173#0 392044395 369800174 508372189 508372186 369800173#0 -777634281 -392044388#2 -392044388#1 114648656#1 1015728524 1015728525#0 993201434#1 369800170#0 369800170#1 508372189 508372186 369800173#0 -777634281 -392044388#2 -392044388#1 114648656#1 1015728524 1015728525#0 993201434#1 369800170#0 369800170#1 508372189 508372186 369800173#0 -777634281 -392044388#2 -392044388#1 114648656#1 1015728524 1015728525#0 993201434#1 369800170#0 369800170#1 508372189 508372186 369800173#0 -777634281 -392044388#2 -392044388#1 114648656#1 1015728524 1015728525#0 436516893#1 700830261#0 1238158274#1 701030406 807003661 597576896#0 114501104#1 1018478676#0 1018478676#1 4894860 1018480661 -597576896#0 -807003661 -1467186698 -464000309 -700830261#0 -1280080859 993201434#1 993201433#1 392044390#0 1056138897#1 436515354 1056138896#0 770109403#2 114915928 1018478675#0 1018478675#1 103086813#0 103086813#1 103086813#2 1018471571 828933467#0 597576903 1018469846 902156787 307822667 597576948 813293047 821114320" />
    <route id="R_8_Lyttelton_Christchurch_International_Airport_17985011" edges="683819893#1 -683819894#0 -830501798#2 -830501798#1 -993555374#0 -436514740 -1409575693#0 -993555375#2 -993555376#0 -651950549#0 406753471 41655467#2 41655467#5 1056154552#0 1056154553#1 436513712#1 1056154554#0 1056154554#1 993555375#2 1409575693#0 1409575693#1 993555374#0 830501798#1 830501798#2 683819894#0 1395896891#1 987155148#1 1395896894#0 1395896894#1 1395896894#2 -436514739#2 -436514739#1 -436514739#0 -1228958071 -1015728523 -777634281 -392044388#2 -392044388#1 114648656#1 1015728524 1015728525#0 436516893#1 700830261#0" />
    <route id="R_8_Christchurch_International_Airport_Lyttelton_17985012" edges="1395896891#1 987155148#1 1395896894#0 1395896894#1 1395896894#2 -436514739#2 -436514739#1 -436514739#0 -1228958071 -1015728523 -777634281 -392044388#2 -392044388#1 114648656#1 1015728524 1015728525#0 993201434#1 993201433#1 392044390#0 1056138897#1 436515354 1056138896#0 646364260#1 1015751047 1015751048#0 1238158274#1 701030406 807003661 597576896#0 114501104#1 1018478676#0 1018478676#1 4894860 1018480661 -597576896#0 -807003661 -1467186698 -464000309 -700830261#0 -1280080859 993201434#1 993201433#1 392044390#0 1056138897#1 436515354 1056138896#0 646364260#1 1015751047 1015751048#0 1238158274#1 701030406 807003661 597576896#0 114501104#1 1018478676#0 1018478676#1 4894860 1018480661 -597576896#0 -807003661 -1467186698 -464000309 -700830261#0 -1280080859 993201434#1 993201433#1 392044390#0 1056138897#1 436515354 1056138896#0 646364260#1 1015751047 1015751048#0 1238158274#1 701030406 807003661 597576896#0 597576896#1 597576896#2 139484443 -114648686#1" />
    <route id="R_84_Rolleson_West_Christchurch_CBD_19516165" edges="-597569351#0 -15800235 194730197#0 194730197#3 777634282#1 479999311#0 23151049#1 984247262#2 1015728528#0 32841811#1 981884343#0 657468210#1 1015728526#0 993201434#1 993201433#1 392044390#0 -571961656#0 571961655#0 571961655#1 571961655#2 -436514739#2 -436514739#1 -436514739#0 -1228958071 -1015728523 -777634281 -392044388#2 -392044388#1 114648656#1 1015728524 1015728525#0 993201434#1 369800170#0 369800170#1 508372189 508372186 369800173#0 1015728523 1228958071 436514739#0 436514739#1 436514739#2 436515355#0 436515355#1 987155151 1056154549 1056138897#1 436515354 1056138896#0 646364260#1 1015751047 1015751048#0 1238158274#1 701030406 807003661 597576896#0 114501104#1 1018478676#0 1018478676#1 103086813#0" />
    <route id="R_84_Christchurch_CBD_Rolleston_West_19516166" edges="597576899#1 777209675#1 335813776#3 823329197#0 -1056138896#0 -436515354 -1056138897#1 -571961656#0 571961655#0 571961655#1 571961655#2 -436514739#2 -436514739#1 -436514739#0 -1228958071 -1015728523 -777634281 -392044388#2 -392044388#1 114648656#1 1015728524 1015728525#0 993201434#1 369800170#0 369800170#1 508372189 508372186 369800173#0 1015728523 1228958071 436514739#0 436514739#1 436514739#2 436515355#0 436515355#1 987155151 1056154549 1056138897#1 436515354 1056138896#0 646364260#1 1015751047 1015751048#0 822357566#1 464000308#1 1015728530#0 1015728531#1 1015728534#0" />
    <route id="R_85_Rolleston_East_Christchurch_CBD_19516169" edges="-597569351#0 -15800235 194730197#0 194730197#3 777634282#1 479999311#0 23151049#1 984247262#2 1015728528#0 32841811#1 981884343#0 657468210#1 1015728526#0 993201434#1 993201433#1 392044390#0 -571961656#0 571961655#0 571961655#1 571961655#2 -436514739#2 -436514739#1 -436514739#0 -1228958071 -1015728523 -777634281 -392044388#2 -392044388#1 114648656#1 1015728524 1015728525#0 993201434#1 369800170#0 369800170#1 508372189 508372186 369800173#0 1015728523 1228958071 436514739#0 436514739#1 436514739#2 436515355#0 436515355#1 987155151 1056154549 1056138897#1 436515354 1056138896#0 646364260#1 1015751047 1015751048#0 1238158274#1 701030406 807003661 597576896#0 114501104#1 1018478676#0 1018478676#1 103086813#0 103086813#1 103086813#2 1018471571 828933467#0 384497886#1" />
    <route id="R_95_Waikuku_Christchurch_20226505" edges="139807681#1 337504041#1 139807680#1 -406753472#2 -406753472#1 392044386#1 392044386#2 114502608#1 41655467#2 41655467#5 1056154552#0 1056154553#1 436513712#1 1056154554#0 1056154554#1 993555375#2 1409575693#0 1409575693#1 993555374#0 830501798#1 830501798#2 683819894#0 1395896891#1 987155148#1 1395896894#0 1395896894#1 1395896894#2 -436514739#2 -436514739#1 -436514739#0 -1228958071 -1015728523 -369800173#0 392044395 508372184 392044390#0 -571961656#0 571961655#0 571961655#1 571961655#2 1383339034 987155155 830501797#0 683819893#1 -683819894#0 -830501798#2 -830501798#1 -993555374#0 -436514740 -1409575693#0 -993555375#2 -993555376#0 -651950549#0 406753471 41655467#2 41655467#5 1056154552#0 1056154553#1 436513712#1 1056154554#0 1056154554#1 993555375#2 1409575693#0 1409575693#1 993555374#0 830501798#1 830501798#2 683819894#0 1395896891#1 987155148#1 1395896894#0 1395896894#1 1395896894#2 -436514739#2 -436514739#1 -436514739#0 -1228958071 -1015728523 -369800173#0 392044395 369800174 508372189 506014262 508372184 392044390#0 114914209#1 114914219 1189761076#2 194715885 384497887#1 1056154546#0 1382213596#1 902156784#1" />
    <route id="R_95_Christchurch_Waikuku_20230058" edges="26600479#0 335813776#3 823329197#0 646364260#1 1015751047 1015751048#0 -700830261#0 -1280080859 993201434#1 369800170#0 369800170#1 508372189 508372186 369800173#0 1015728523 1228958071 436514739#0 436514739#1 436514739#2 1383339034 987155155 830501797#0 683819893#1 -683819894#0 -830501798#2 -830501798#1 -993555374#0 -436514740 -1409575693#0 -993555375#2 -993555376#0 -651950549#0 -529843972 -124842990#1 463039420#0 392044386#1 392044386#2 337505266#1 337282272#0" />
    <route id="R_3_NTA_Sumner_20238259" edges="23151049#1 984247262#2 1015728528#0 32841811#1 981884343#0 657468210#1 1015728526#0 993201434#1 993201433#1 392044390#0 -571961656#0 571961655#0 571961655#1 571961655#2 -436514739#2 -436514739#1 -436514739#0 -1228958071 -1015728523 -777634281 -392044388#2 -392044388#1 114648656#1 1015728524 1015728525#0 993201434#1 993201433#1 392044390#0 114914209#1 114914219 1189761076#2 194715885 384497887#1 1056154546#0 1382213596#1 902156784#1" />