<?xml version='1.0' encoding='UTF-8'?>
<routes>
    <vType id="bus" vClass="bus" color="0,122,135" />
    <route id="R_80_Parkland_Lincoln_1594411" edges="-31946882#1 114501104#1 1018478676#0 1018478676#1 103086813#0 103086813#1 103086813#2 1018471571 828933467#0 597576903 1018469846 902156787 821111102 235570556 829392052 1018636800#0 1248691231#2 902156801#1 902156786#1 26600479#0 335813776#3 823329197#0 -1056138896#0 -436515354 -1056138897#1 -571961656#0 571961655#0 571961655#1 571961655#2 -436514739#2 -436514739#1 -436514739#0 -1228958071 -1015728523 -777634281 -392044388#1 114648656#1 1015728524 1015728525#0 993201434#1 369800170#0 369800170#1 508372189 508372186 369800173#0 1015728523 1228958071 436514739#0 436514739#1 436514739#2 436515355#0 436515355#1 987155151 1056154549 1056138897#1 436515354 1056138896#0 646364260#1 1015751047 1015751048#0 -700830261#0 -1280080859 993201434#1 993201433#1 392044390#0 1056138897#1 436515354 1056138896#0 646364260#1 1015751047 1015751048#0 822357566#1 464000308#1 1015728530#0 1015728531#1 1015728534#0 27166907#2 344479221#0 344479221#1 344479221#2 344479221#3 344479221#4 650742655#2 817337720 777406033 1036763565 337504016 235384540" />
    <route id="R_3_Sumner_NTA_1594416" edges="-23245263 23245254#0 597576944#1 829392052 1018636800#0 1248691231#2 902156801#1 902156784#1 821114319#1 194715884#0 821114320 1018471572 828933465 384497886#1 597576899#1 777209675#1 1311909671#2 1056154547#0 384497887#1 1056154546#0 1382213596#1 902156786#1 26600479#0 335813776#3 823329197#0 646364260#1 1015751047 1015751048#0 -700830261#0 -1280080859 993201434#1 993201433#1 392044390#0 -571961656#0 571961655#0 571961655#1 571961655#2 -436514739#2 -436514739#1 -436514739#0 -1228958071 -1015728523 -777634281 -392044388#1 114648656#1 1015728524 1015728525#0 993201434#1 369800170#0 369800170#1 508372189 506014262 508372184 392044390#0 1056138897#1 436515354 1056138896#0 646364260#1 1015751047 1015751048#0 -700830261#0 -1280080859 993201434#1 993201433#1 392044390#0 1056138897#1 436515354 1056138896#0 770109403#2 114915928 1018478675#0 1018478675#1 103086818 182824587#0 182824587#1 26701176 777634276 1015754937#0 114501102#1 1015756826#0 777634272#1 1015757971#0 1015757971#1 -597569351#0 -15800235 194730197#0 194730197#3 777634282#1 479999311#0 23151049#1 984247262#2 1015728528#0 32841811#1 981884343#0 657468210#1 1015728526#0 436516893#1 700830261#0 1238158274#1 701030406 807003661 597576896#0 31946882#1" />
    <route id="R_7_Queenspark_Halswell_1597633" edges="235547876#0 114770270#1 235549020#0 611456700#1 101766955 902156796#1 1373259080#1 1018655102#1 1176472263#2 -902156799#0 -902156783#1 139633217#1 139633217#4 139633217#7 1382213596#1 902156786#1 26600479#0 335813776#3 823329197#0 -1056138896#0 -436515354 -1056138897#1 -571961656#0 571961655#0 571961655#1 571961655#2 1383339034 987155155 830501797#0 683819893#1 -683819894#0 -830501798#2 -830501798#1 -993555374#0 -436514740 -1409575693#0 -993555375#2 -993555376#0 -651950549#0 406753471 41655467#2 41655467#5 1056154552#0 1056154553#1 436513712#1 1056154554#0 1056154554#1 993555375#2 1409575693#0 1409575693#1 993555374#0 830501798#1 830501798#2 683819894#0 1395896891#1 987155148#1 1395896894#0 1395896894#1 1395896894#2 -436514739#2 -436514739#1 -436514739#0 -1228958071 -1015728523 -369800173#0 392044395 508372184 392044390#0 -571961656#0 571961655#0 571961655#1 571961655#2 1383339034 987155155 830501797#0 683819893#1 -683819894#0 -830501798#2 -830501798#1 -993555374#0 -436514740 -1409575693#0 -993555375#2 -993555376#0 -651950549#0 406753471 41655467#2 41655467#5 1056154552#0 1056154553#1 436513712#1 1056154554#0 1056154554#1 993555375#2 1409575693#0 1409575693#1 993555374#0 830501798#1 830501798#2 683819894#0 1395896891#1 987155148#1 1395896894#0 1395896894#1 1395896894#2 -436514739#2 -436514739#1 -436514739#0 -1228958071 -1015728523 -369800173#0 392044395 369800174 508372189 506014262 508372184 392044390#0 1056138897#1 436515354 1056138896#0 646364260#1 1015751047 1015751048#0 822357566#1 464000308#1 1015728530#0 1015728531#1 1015728534#0 27166907#2 344479221#0 344479221#1 344479221#2 344479221#3 344479221#4 -479999311#0 -1447308649 -194730197#3 -194730197#0 1467161237 597569351#0 1026983480#1 1015756825#0 777634273#1 1015754936#0 139810524#1 1015753884 103086816#0 103086816#1 1018478676#0 1018478676#1 4894860 1018480661 114501127#1 182824587#0 182824587#1 26701176 777634276 1015754937#0 114501102#1 1015756826#0 777634272#1 1015757971#0 1015757971#1 -597569351#0 -15800235 194730197#0 194730197#3 777634282#1 479999311#0 23151049#1 984247262#2 1015728528#0 32841811#1 981884343#0 657468210#1 1015728526#0 436516893#1 700830261#0 822357566#1 464000308#1 1015728530#0 1015728531#1 1015728534#0 27166907#2 344479221#0 344479221#1 344479221#2 344479221#3 344479221#4 650742655#2 817337720 777406033 1036763565 337504016 235384540" />
    <route id="R_29_Airport_City_1597641" edges="4830350 -392044387#1 -406753472#2 -406753472#1 392044386#1 392044386#2 337505266#1 337282272#0 1255161082#0 1255161082#1 139633605 23146862#0 23146862#1 139807681#1 337504041#1 139807680#1 -406753472#2 -406753472#1 392044386#1 392044386#2 114502608#1 41655467#2 41655467#5 1056154552#0 1056154553#1 436513712#1 1056154554#0 1056154554#1 993555375#2 1409575693#0 1409575693#1 993555374#0 830501798#1 830501798#2 683819894#0 1395896891#1 987155148#1 1395896894#0 1395896894#1 1395896894#2 -436514739#2 -436514739#1 -436514739#0 -1228958071 -1015728523 -369800173#0 392044395 369800174 508372189 508372186 369800173#0 1015728523 1228958071 436514739#0 436514739#1 436514739#2 436515355#0 436515355#1 987155151 1056154549 114914209#1 114914219 1189761076#2 194715885 384497887#1 1056154546#0 194716060#1 1368153906#0 4891423" />
    <route id="R_1_1598996" edges="23235415#0 396137520#1 139633217#4 139633217#7 1382213596#1 902156786#1 26600479#0 335813776#3 823329197#0 770109403#2 114915928 1018478675#0 1018478675#1 4894860 1018480661 -597576896#0 -807003661 -1467186698 -464000309 -700830261#0 -1280080859 993201434#1 369800170#0 369800170#1 508372189 508372186 369800173#0 -777634281 -392044388#1 114648656#1 1015728524 1015728525#0 436516893#1 700830261#0 1238158274#1 701030406 807003661 597576896#0 114501104#1 1018478676#0 1018478676#1 4894860 1018480661 -597576896#0 -807003661 -1467186698 -464000309 -700830261#0 -1280080859 993201434#1 369800170#0 369800170#1 508372189 508372186 369800173#0 1015728523 1228958071 436514739#0 436514739#1 436514739#2 1383339034 987155155 830501797#0 683819893#1 -683819894#0 -830501798#2 -830501798#1 -993555374#0 -436514740 -1409575693#0 -993555375#2 -993555376#0 -651950549#0 -529843972 -124842990#1 463039420#0 392044386#1 392044386#2 337505266#1 337282272#0 1255161082#0 1255161082#1 139633605 23146862#0 207144254#1 206789269#1 1025115106 -1025115107 -646361136 -479979187 -24721880#1 -200627150#0 -1025115108 -30861274" />
    <route id="R_95_Waikuku_Christchurch_1598997" edges="4830350 -392044387#1 -406753472#2 -406753472#1 392044386#1 392044386#2 337505266#1 337282272#0 1255161082#0 1255161082#1 139633605 23146862#0 23146862#1 139807681#1 337504041#1 139807680#1 -406753472#2 -406753472#1 392044386#1 392044386#2 114502608#1 41655467#2 41655467#5 1056154552#0 1056154553#1 436513712#1 1056154554#0 1056154554#1 993555375#2 1409575693#0 1409575693#1 993555374#0 830501798#1 830501798#2 683819894#0 1395896891#1 987155148#1 1395896894#0 1395896894#1 1395896894#2 -436514739#2 -436514739#1 -436514739#0 -1228958071 -1015728523 -369800173#0 392044395 508372184 392044390#0 -571961656#0 571961655#0 571961655#1 571961655#2 1383339034 987155155 830501797#0 683819893#1 -683819894#0 -830501798#2 -830501798#1 -993555374#0 -436514740 -1409575693#0 -993555375#2 -993555376#0 -651950549#0 406753471 41655467#2 41655467#5 1056154552#0 1056154553#1 436513712#1 1056154554#0 1056154554#1 993555375#2 1409575693#0 1409575693#1 993555374#0 830501798#1 830501798#2 683819894#0 1395896891#1 987155148#1 1395896894#0 1395896894#1 1395896894#2 -436514739#2 -436514739#1 -436514739#0 -1228958071 -1015728523 -369800173#0 392044395 369800174 508372189 506014262 508372184 392044390#0 114914209#1 114914219 1189761076#2 194715885 384497887#1 1056154546#0 1382213596#1 902156784#1 821114319#1 194715884#0 902156787 821111102 531164117#0 -23245254#0 23245263" />
    <route id="R_44_Shirley_Westmorland_1612575" edges="4830350 829840447#1 902156793#1 114770270#1 235549020#0 611456703#1 1255161063 114770261 902156794#1 -392044387#1 -406753472#2 -406753472#1 392044386#1 392044386#2 114502608#1 41655467#2 41655467#5 1056154552#0 1056154553#1 436513712#1 1056154554#0 1056154554#1 993555375#2 1409575693#0 1409575693#1 993555374#0 830501798#1 830501798#2 683819894#0 1395896891#1 987155148#1 1395896894#0 1395896894#1 1395896894#2 -436514739#2 -436514739#1 -436514739#0 -1228958071 -1015728523 -369800173#0 392044395 508372184 392044390#0 -571961656#0 571961655#0 571961655#1 571961655#2 1383339034 987155155 830501797#0 683819893#1 -683819894#0 -830501798#2 -830501798#1 -993555374#0 -436514740 -1409575693#0 -993555375#2 -993555376#0 -651950549#0 406753471 41655467#2 41655467#5 1056154552#0 1056154553#1 436513712#1 1056154554#0 1056154554#1 993555375#2 1409575693#0 1409575693#1 993555374#0 830501798#1 830501798#2 683819894#0 1395896891#1 987155148#1 1395896894#0 1395896894#1 1395896894#2 -436514739#2 -436514739#1 -436514739#0 -1228958071 -1015728523 -369800173#0 392044395 369800174 508372189 506014262 508372184 392044390#0 1056138897#1 436515354 1056138896#0 646364260#1 1015751047 1015751048#0 1238158274#1 701030406 807003661 597576896#0 597576896#1 597576896#2 139484443 -114648686#1 -114648686#0" />
    <route id="R_60_Southshore_Hillmorton_1625359" edges="1076470475 1018636798#0 1248691231#2 597576939#1 1371935610 1371935611#1 1367206849#1 1153171356#0 1153171355#1 318023470#1 1176472262#2 117752437#1 -1373259078#0 -1373259076#0 335831540#1 335831540#2 942858501#0 942858501#1 23146872#1 -463039420#0 124842990#1 124842990#2 651950549#0 494827032#2 993555375#2 1409575693#0 1409575693#1 993555374#0 830501798#1 830501798#2 683819894#0 1395896891#1 987155148#1 1395896894#0 1395896894#1 1395896894#2 -436514739#2 -436514739#1 -436514739#0 -1228958071 -1015728523 -369800173#0 392044395 369800174 508372189 506014262 508372184 392044390#0 1056138897#1 436515354 1056138896#0 646364260#1 1015751047 1015751048#0 822357566#1 464000308#1 1015728530#0 1015728531#1 1015728534#0 27166907#2 344479221#0 344479221#1 344479221#2 344479221#3 344479221#4 -479999311#0 -1447308649 -194730197#3 -194730197#0 1467161237 597569351#0 1026983480#1 1015756825#0 777634273#1 1015754936#0 139810524#1 1015753884 103086816#0 103086816#1 1018478676#0 1018478676#1 4894860 1018480661 114501127#1 182824587#0 182824587#1 26701176 777634276 1015754937#0 114501102#1 1015756826#0 777634272#1 1015757971#0 1015757971#1 1015757970#1" />
    <route id="R_140_Russley_Mount_Pleasant_4290280" edges="-31946882#1 -597576896#0 -807003661 -1467186698 -464000309 822357566#1 464000308#1 1015728530#0 1015728531#1 1015728534#0 27166907#2 344479221#0 344479221#1 344479221#2 344479221#3 344479221#4 -479999311#0 -1447308649 -194730197#3 -194730197#0 1467161237 597569351#0 1026983480#1 1015756825#0 777634273#1 1015754936#0 139810524#1 1015753884 4894859#0 4894859#1 1018480659 114501104#1 1018478676#0 1018478676#1 103086813#0 103086813#1 103086813#2 1018471571 828933467#0 597576903 1018469846 902156787 821111102 531164117#0 821111101" />
    <route id="R_5_New_Brighton_Rolleston_6683657" edges="235547876#0 114770270#1 235549020#0 611456700#1 101766955 902156796#1 1373259080#1 1018655102#1 1176472263#2 -902156799#0 -902156783#1 139633217#1 139633217#4 139633217#7 1382213596#1 902156786#1 26600479#0 335813776#3 823329197#0 -1056138896#0 -436515354 -1056138897#1 -571961656#0 571961655#0 571961655#1 571961655#2 1383339034 987155155 830501797#0 683819893#1 -683819894#0 -830501798#2 -830501798#1 -993555374#0 -436514740 -1409575693#0 -993555375#2 -993555376#0 -651950549#0 406753471 41655467#2 41655467#5 1056154552#0 1056154553#1 436513712#1 1056154554#0 1056154554#1 993555375#2 1409575693#0 1409575693#1 993555374#0 830501798#1 830501798#2 683819894#0 1395896891#1 987155148#1 1395896894#0 1395896894#1 1395896894#2 -436514739#2 -436514739#1 -436514739#0 -1228958071 -1015728523 -369800173#0 392044395 508372184 392044390#0 -571961656#0 571961655#0 571961655#1 571961655#2 1383339034 987155155 830501797#0 683819893#1 -683819894#0 -830501798#2 -830501798#1 -993555374#0 -436514740 -1409575693#0 -993555375#2 -993555376#0 -651950549#0 406753471 41655467#2 41655467#5 1056154552#0 1056154553#1 436513712#1 1056154554#0 1056154554#1 993555375#2 1409575693#0 1409575693#1 993555374#0 830501798#1 830501798#2 683819894#0 1395896891#1 987155148#1 1395896894#0 1395896894#1 1395896894#2 -436514739#2 -436514739#1 -436514739#0 -1228958071 -1015728523 -369800173#0 392044395 369800174 508372189 506014262 508372184 392044390#0 1056138897#1 436515354 1056138896#0 646364260#1 1015751047 1015751048#0 822357566#1 464000308#1 1015728530#0 1015728531#1 1015728534#0 27166907#2 344479221#0 344479221#1 344479221#2 344479221#3 344479221#4 650742655#2 817337720 777406033 1036763565 337504016 235384540" />
    <route id="R_7_Halswell_Queenspark_6685940" edges="1015757969#0 -597569351#0 -15800235 194730197#0 194730197#3 777634282#1 479999311#0 23151049#1 984247262#2 1015728528#0 32841811#1 981884343#0 657468210#1 1015728526#0 993201434#1 369800170#0 369800170#1 508372189 508372186 369800173#0 1015728523 1228958071 436514739#0 436514739#1 436514739#2 1383339034 987155155 830501797#0 683819893#1 -683819894#0 -830501798#2 -830501798#1 -993555374#0 -436514740 -1409575693#0 -993555375#2 -993555376#0 -651950549#0 406753471 -41655467#0 -116419807#2 -116419807#1 139807680#1 392044387#1 -1292241130#0" />
    <route id="R_3_Sumner_Christchurch_Aiport_7527791" edges="-31946882#1 -597576896#0 -807003661 -1467186698 -464000309 -700830261#0 -1280080859 993201434#1 993201433#1 392044390#0 114914209#1 114914219 1189761076#2 194715885 384497887#1 1056154546#0 1382213596#1 902156786#1 26600479#0 335813776#3 823329197#0 -1056138896#0 -436515354 -1056138897#1 -571961656#0 571961655#0 571961655#1 571961655#2 -436514739#2 -436514739#1 -436514739#0 -1228958071 -1015728523 -777634281 -392044388#1 114648656#1 1015728524 1015728525#0 993201434#1 369800170#0 369800170#1 508372189 508372186 369800173#0 1015728523 1228958071 436514739#0 436514739#1 436514739#2 436515355#0 436515355#1 987155151 1056154549 1056138897#1 436515354 1056138896#0 646364260#1 1015751047 1015751048#0 -700830261#0 -1280080859 993201434#1 993201433#1 392044390#0 1056138897#1 436515354 1056138896#0 646364260#1 1015751047 1015751048#0 822357566#1 464000308#1 1015728530#0 1015728531#1 1015728534#0 27166907#2 344479221#0 344479221#1 344479221#2 344479221#3 344479221#4 650742655#2 817337720 777406033 1036763565 337504016 235384540" />
    <route id="R_60_Hillmorton_Southshore_12554852" edges="-1015757970#1 -597569351#0 -15800235 194730197#0 194730197#3 777634282#1 479999311#0 23151049#1 984247262#2 1015728528#0 32841811#1 981884343#0 657468210#1 1015728526#0 993201434#1 369800170#0 369800170#1 508372189 508372186 369800173#0 1015728523 1228958071 436514739#0 436514739#1 436514739#2 1383339034 987155155 830501797#0 683819893#1 -683819894#0 -830501798#2 -830501798#1 -993555374#0 -436514740 -1409575693#0 -993555375#2 -993555376#0 -651950549#0 406753471 -41655467#0 -116419807#2 -116419807#1 139807680#1 392044387#1 -1292241130#0" />
    <route id="R_29_City_Airport_12817159" edges="-530438714 992432618#0 992432618#1 235384542 777406032 22779530#0 23151049#1 984247262#2 1015728528#0 32841811#1 981884343#0 657468210#1 1015728526#0 993201434#1 993201433#1 392044390#0 -571961656#0 571961655#0 571961655#1 571961655#2 -436514739#2 -436514739#1 -436514739#0 -1228958071 -1015728523 -369800173#0 392044395 369800174 508372189 508372186 369800173#0 1015728523 1228958071 436514739#0 436514739#1 436514739#2 1383339034 987155155 830501797#0 683819893#1 -683819894#0 -830501798#2 -830501798#1 -993555374#0 -436514740 -1409575693#0 -993555375#2 -993555376#0 -651950549#0 -529843972 -124842990#1 463039420#0 392044386#1 392044386#2 337505266#1 337282272#0 1255161082#0 1255161082#1 139633605 23146862#0 207144254#1 206789269#1 1025115106 -1025115107 -646361136 -479979187 -24721880#1 -200627150#0 -1025115108 -30861274" />
    <route id="R_1_Rangiora_Cashmere_12835307" edges="4830350 -392044387#1 -406753472#2 -406753472#1 392044386#1 392044386#2 337505266#1 337282272#0 1255161082#0 1255161082#1 139633605 23146862#0 23146862#1 139807681#1 337504041#1 139807680#1 -406753472#2 -406753472#1 392044386#1 392044386#2 114502608#1 41655467#2 41655467#5 1056154552#0 1056154553#1 436513712#1 1056154554#0 1056154554#1 993555375#2 1409575693#0 1409575693#1 993555374#0 830501798#1 830501798#2 683819894#0 1395896891#1 987155148#1 1395896894#0 1395896894#1 1395896894#2 -436514739#2 -436514739#1 -436514739#0 -1228958071 -1015728523 -369800173#0 392044395 508372184 392044390#0 -571961656#0 571961655#0 571961655#1 571961655#2 1383339034 987155155 830501797#0 683819893#1 -683819894#0 -830501798#2 -830501798#1 -993555374#0 -436514740 -1409575693#0 -993555375#2 -993555376#0 -651950549#0 406753471 41655467#2 41655467#5 1056154552#0 1056154553#1 436513712#1 1056154554#0 1056154554#1 993555375#2 1409575693#0 1409575693#1 993555374#0 830501798#1 830501798#2 683819894#0 1395896891#1 987155148#1 1395896894#0 1395896894#1 1395896894#2 -436514739#2 -436514739#1 -436514739#0 -1228958071 -1015728523 -369800173#0 392044395 369800174 508372189 506014262 508372184 392044390#0 1056138897#1 436515354 1056138896#0 646364260#1 1015751047 1015751048#0 1238158274#1 701030406 807003661 597576896#0 597576896#1 597576896#2 139484443 -114648686#1 -114648686#0" />
    <route id="R_3_Sheffield_Crescent_Sumner_13332727" edges="-530438714 992432618#0 992432618#1 235384542 777406032 22779530#0 23151049#1 984247262#2 1015728528#0 32841811#1 981884343#0 657468210#1 1015728526#0 436516893#1 700830261#0 822357566#1 464000308#1 1015728530#0 1015728531#1 1015728534#0 27166907#2 344479221#0 344479221#1 344479221#2 344479221#3 344479221#4 650742655#2 817337720 777406033 1036763565 337504016 235384540" />
    <route id="R_3_Sumner_Sheffield_Crescent_13332728" edges="-31946882#1 -597576896#0 -807003661 -1467186698 -464000309 -700830261#0 -1280080859 993201434#1 993201433#1 392044390#0 114914209#1 114914219 1189761076#2 194715885 384497887#1 1056154546#0 1382213596#1 902156786#1 26600479#0 335813776#3 823329197#0 -1056138896#0 -436515354 -1056138897#1 -571961656#0 571961655#0 571961655#1 571961655#2 -436514739#2 -436514739#1 -436514739#0 -1228958071 -1015728523 -777634281 -392044388#1 114648656#1 1015728524 1015728525#0 993201434#1 369800170#0 369800170#1 508372189 508372186 369800173#0 1015728523 1228958071 436514739#0 436514739#1 436514739#2 436515355#0 436515355#1 987155151 1056154549 1056138897#1 436515354 1056138896#0 646364260#1 1015751047 1015751048#0 -700830261#0 -1280080859 993201434#1 993201433#1 392044390#0 1056138897#1 436515354 1056138896#0 646364260#1 1015751047 1015751048#0 822357566#1 464000308#1 1015728530#0 1015728531#1 1015728534#0 27166907#2 344479221#0 344479221#1 344479221#2 344479221#3 344479221#4 650742655#2 817337720 777406033 1036763565 337504016 235384540" />
    <route id="R_44_Westmorland_Shirley_13334642" edges="23235415#0 396137520#1 139633217#4 139633217#7 1382213596#1 902156786#1 26600479#0 335813776#3 823329197#0 770109403#2 114915928 1018478675#0 1018478675#1 4894860 1018480661 -597576896#0 -807003661 -1467186698 -464000309 -700830261#0 -1280080859 993201434#1 369800170#0 369800170#1 508372189 508372186 369800173#0 -777634281 -392044388#1 114648656#1 1015728524 1015728525#0 436516893#1 700830261#0 1238158274#1 701030406 807003661 597576896#0 114501104#1 1018478676#0 1018478676#1 4894860 1018480661 -597576896#0 -807003661 -1467186698 -464000309 -700830261#0 -1280080859 993201434#1 369800170#0 369800170#1 508372189 508372186 369800173#0 1015728523 1228958071 436514739#0 436514739#1 436514739#2 1383339034 987155155 830501797#0 683819893#1 -683819894#0 -830501798#2 -830501798#1 -993555374#0 -436514740 -1409575693#0 -993555375#2 -993555376#0 -651950549#0 -529843972 -124842990#1 463039420#0 406753472#1 406753472#2 392044387#1 829840447#1 902156793#1 -235547876#0" />
    <route id="R_95_Christchurch_Waikuku_13794090" edges="-31946882#1 -597576896#0 -807003661 -1467186698 -464000309 -700830261#0 -1280080859 993201434#1 993201433#1 392044390#0 114914209#1 114914219 1189761076#2 194715885 384497887#1 1056154546#0 1382213596#1 902156786#1 26600479#0 335813776#3 823329197#0 646364260#1 1015751047 1015751048#0 -700830261#0 -1280080859 993201434#1 369800170#0 369800170#1 508372189 508372186 369800173#0 -777634281 -392044388#1 114648656#1 1015728524 1015728525#0 436516893#1 700830261#0 1238158274#1 701030406 807003661 597576896#0 114501104#1 1018478676#0 1018478676#1 4894860 1018480661 -597576896#0 -807003661 -1467186698 -464000309 -700830261#0 -1280080859 993201434#1 369800170#0 369800170#1 508372189 508372186 369800173#0 1015728523 1228958071 436514739#0 436514739#1 436514739#2 1383339034 987155155 830501797#0 683819893#1 -683819894#0 -830501798#2 -830501798#1 -993555374#0 -436514740 -1409575693#0 -993555375#2 -993555376#0 -651950549#0 -529843972 -124842990#1 463039420#0 392044386#1 392044386#2 337505266#1 337282272#0 1255161082#0 1255161082#1 139633605 23146862#0 207144254#1 206789269#1 1025115106 -1025115107 -646361136 -479979187 -24721880#1 -200627150#0 -1025115108 -30861274" />
    <route id="R_5_Rolleston_New_Brighton_13803257" edges="-530438714 992432618#0 992432618#1 235384542 777406032 22779530#0 23151049#1 984247262#2 1015728528#0 32841811#1 981884343#0 657468210#1 1015728526#0 993201434#1 369800170#0 369800170#1 508372189 508372186 369800173#0 1015728523 1228958071 436514739#0 436514739#1 436514739#2 1383339034 987155155 830501797#0 683819893#1 -683819894#0 -830501798#2 -830501798#1 -993555374#0 -436514740 -1409575693#0 -993555375#2 -993555376#0 -651950549#0 406753471 -41655467#0 -116419807#2 -116419807#1 139807680#1 392044387#1 -1292241130#0" />
    <route id="R_80_Lincoln_Parklands_13809322" edges="-530438714 992432618#0 992432618#1 235384542 777406032 22779530#0 23151049#1 984247262#2 1015728528#0 32841811#1 981884343#0 657468210#1 1015728526#0 993201434#1 993201433#1 392044390#0 -571961656#0 571961655#0 571961655#1 571961655#2 -436514739#2 -436514739#1 -436514739#0 -1228958071 -1015728523 -777634281 -392044388#1 114648656#1 1015728524 1015728525#0 993201434#1 369800170#0 369800170#1 508372189 506014262 508372184 392044390#0 1056138897#1 436515354 1056138896#0 646364260#1 1015751047 1015751048#0 -700830261#0 -1280080859 993201434#1 993201433#1 392044390#0 114914209#1 114914219 1189761076#2 194715885 384497887#1 1056154546#0 194716060#1 1368153906#0 4891423" />
    <route id="R_140_Mount_Pleasant_Russley_13871329" edges="-821111101 597576953#1 597576948 813293047 821114320 1018471572 828933465 597576921#1 1018478677 597576915#0 597576915#1 4894860 1018480661 114501127#1 182824587#0 182824587#1 26701176 777634276 1015754937#0 114501102#1 1015756826#0 777634272#1 1015757971#0 1015757971#1 -1015757969#0" />
    <route id="R_92_Kaiapoi_City_16272293" edges="-139811056#1 26701176 777634276 1015754937#0 114501102#1 1015756826#0 777634272#1 1015757971#0 1015757971#1 -597569351#0 -15800235 194730197#0 194730197#3 777634282#1 479999311#0 23151049#1 984247262#2 1015728528#0 32841811#1 981884343#0 657468210#1 1015728526#0 993201434#1 369800170#0 369800170#1 508372189 508372186 369800173#0 1015728523 1228958071 436514739#0 436514739#1 436514739#2 1383339034 987155155 830501797#0 683819893#1 -683819894#0 -830501798#2 -830501798#1 -993555374#0 -436514740 -1409575693#0 -993555375#2 -993555376#0 -651950549#0 406753471 41655467#2 41655467#5 1056154552#0 1056154553#1 436513712#1 1056154554#0 1056154554#1 993555375#2 1409575693#0 1409575693#1 993555374#0 830501798#1 830501798#2 683819894#0 1395896891#1 987155148#1 1395896894#0 1395896894#1 1395896894#2 -436514739#2 -436514739#1 -436514739#0 -1228958071 -1015728523 -369800173#0 392044395 369800174 508372189 506014262 508372184 392044390#0 1056138897#1 436515354 1056138896#0 646364260#1 1015751047 1015751048#0 822357566#1 464000308#1 1015728530#0 1015728531#1 1015728534#0 27166907#2 344479221#0 344479221#1 344479221#2 344479221#3 344479221#4 -479999311#0 -1447308649 -194730197#3 -194730197#0 1467161237 597569351#0 1026983480#1 1015756825#0 777634273#1 1015754936#0 139810524#1 1015753884 103086816#0 103086816#1 1018478676#0 1018478676#1 -1018478675#1 -1018478675#0 -114915928 -770109403#2 -1056138896#0 -436515354 -1056138897#1 -571961656#0 571961655#0 571961655#1 571961655#2 1383339034 987155155 830501797#0 683819893#1 -683819894#0 -830501798#2 -830501798#1 -993555374#0 -436514740 -1409575693#0 -993555375#2 -993555376#0 -651950549#0 406753471 -41655467#0 -116419807#2 -116419807#1 139807680#1 -406753472#2 -406753472#1 392044386#1 392044386#2 114502608#1 41655467#2 41655467#5 1056154552#0 1056154553#1 436513712#1 1056154554#0 1056154554#1 -993555376#0 -651950549#0 -529843972 -124842990#1 463039420#0 406753472#1 406753472#2 392044387#1 896891141#1 -611456680" />
    <route id="R_81_City_Lincoln_16272294" edges="-31946882#1 -597576896#0 -807003661 -1467186698 -464000309 -700830261#0 -1280080859 993201434#1 993201433#1 392044390#0 114914209#1 114914219 1189761076#2 194715885 384497887#1 1056154546#0 1382213596#1 902156786#1 26600479#0 335813776#3 823329197#0 -1056138896#0 -436515354 -1056138897#1 -571961656#0 571961655#0 571961655#1 571961655#2 -436514739#2 -436514739#1 -436514739#0 -1228958071 -1015728523 -777634281 -392044388#1 114648656#1 1015728524 1015728525#0 993201434#1 369800170#0 369800170#1 508372189 508372186 369800173#0 1015728523 1228958071 436514739#0 436514739#1 436514739#2 436515355#0 436515355#1 987155151 1056154549 1056138897#1 436515354 1056138896#0 646364260#1 1015751047 1015751048#0 -700830261#0 -1280080859 993201434#1 993201433#1 392044390#0 1056138897#1 436515354 1056138896#0 646364260#1 1015751047 1015751048#0 822357566#1 464000308#1 1015728530#0 1015728531#1 1015728534#0 27166907#2 344479221#0 344479221#1 344479221#2 344479221#3 344479221#4 -479999311#0 -1447308649 -194730197#3 -194730197#0 1467161237 597569351#0 1015757970#1" />
    <route id="R_86_Christchurch_Darfield_16272295" edges="235547876#0 114770270#1 235549020#0 611456700#1 101766955 902156796#1 1373259080#1 1018655102#1 1176472263#2 -902156799#0 -902156783#1 139633217#1 139633217#4 139633217#7 1382213596#1 902156786#1 26600479#0 335813776#3 823329197#0 -1056138896#0 -436515354 -1056138897#1 -571961656#0 571961655#0 571961655#1 571961655#2 1383339034 987155155 830501797#0 683819893#1 -683819894#0 -830501798#2 -830501798#1 -993555374#0 -436514740 -1409575693#0 -993555375#2 -993555376#0 -651950549#0 406753471 41655467#2 41655467#5 1056154552#0 1056154553#1 436513712#1 1056154554#0 1056154554#1 993555375#2 1409575693#0 1409575693#1 993555374#0 830501798#1 830501798#2 683819894#0 1395896891#1 987155148#1 1395896894#0 1395896894#1 1395896894#2 -436514739#2 -436514739#1 -436514739#0 -1228958071 -1015728523 -369800173#0 392044395 369800174 508372189 506014262 508372184 392044390#0 1056138897#1 436515354 1056138896#0 646364260#1 1015751047 1015751048#0 822357566#1 464000308#1 1015728530#0 1015728531#1 1015728534#0 27166907#2 344479221#0 344479221#1 344479221#2 344479221#3 344479221#4 650742655#2 817337720 777406033 1036763565 337504016 235384540" />
    <route id="R_86_Darfield_Christchurch_16784847" edges="-530438714 992432618#0 992432618#1 235384542 777406032 22779530#0 23151049#1 984247262#2 1015728528#0 32841811#1 981884343#0 657468210#1 1015728526#0 436516893#1 700830261#0 822357566#1 464000308#1 1015728530#0 1015728531#1 1015728534#0 27166907#2 344479221#0 344479221#1 344479221#2 344479221#3 344479221#4 650742655#2 817337720 777406033 1036763565 337504016 235384540" />
    <route id="R_91_Rangiora_City_17027253" edges="-530438714 992432618#0 992432618#1 235384542 777406032 22779530#0 23151049#1 984247262#2 1015728528#0 32841811#1 981884343#0 657468210#1 1015728526#0 436516893#1 700830261#0 822357566#1 464000308#1 1015728530#0 1015728531#1 1015728534#0 27166907#2 344479221#0 344479221#1 344479221#2 344479221#3 344479221#4 -479999311#0 -1447308649 -194730197#3 -194730197#0 1467161237 597569351#0 1026983480#1 1015756825#0 777634273#1 1015754936#0 139810524#1 1015753884 103086816#0 103086816#1 1018478676#0 1018478676#1 -1018478675#1 -1018478675#0 -114915928 -770109403#2 646364260#1 1015751047 1015751048#0 -700830261#0 -1280080859 993201434#1 993201433#1 392044390#0 -571961656#0 571961655#0 571961655#1 571961655#2 -436514739#2 -436514739#1 -436514739#0 -1228958071 -1015728523 -777634281 -392044388#1 114648656#1 1015728524 1015728525#0 993201434#1 369800170#0 369800170#1 508372189 508372186 369800173#0 1015728523 1228958071 436514739#0 436514739#1 436514739#2 436515355#0 436515355#1 987155151 1056154549 1056138897#1 436515354 1056138896#0 646364260#1 1015751047 1015751048#0 -700830261#0 -1280080859 993201434#1 993201433#1 392044390#0 -571961656#0 571961655#0 571961655#1 571961655#2 1383339034 987155155 830501797#0 683819893#1 -683819894#0 -830501798#2 -830501798#1 -993555374#0 -436514740 -1409575693#0 -993555375#2 -993555376#0 -651950549#0 406753471 -41655467#0 -116419807#2 -116419807#1 139807680#1 -406753472#2 -406753472#1 392044386#1 392044386#2 114502608#1 41655467#2 41655467#5 1056154552#0 1056154553#1 436513712#1 1056154554#0 1056154554#1 -993555376#0 -651950549#0 -529843972 -124842990#1 463039420#0 406753472#1 406753472#2 392044387#1 -1292241130#0" />